<?xml version="1.0" encoding="UTF-8"?>

<!-- generated on Mon Dec  8 08:02:42 2014 by SUMO netgenerate Version 0.19.0
<?xml version="1.0" encoding="UTF-8"?>

<configuration xmlns:xsi="http://www.w3.org/2001/XMLSchema-instance" xsi:noNamespaceSchemaLocation="http://sumo-sim.org/xsd/netgenerateConfiguration.xsd">

    <grid_network>
        <grid value="true"/>
        <grid.x-number value="3"/>
        <grid.y-number value="3"/>
        <grid.x-length value="150"/>
        <grid.y-length value="150"/>
    </grid_network>

    <output>
        <output-file value="net.net.xml"/>
        <plain-output-prefix value="nodes"/>
    </output>

    <tls_building>
        <tls.guess value="true"/>
    </tls_building>

    <processing>
        <no-turnarounds value="true"/>
    </processing>

</configuration>
-->

<tlLogics version="0.13" xmlns:xsi="http://www.w3.org/2001/XMLSchema-instance" xsi:noNamespaceSchemaLocation="http://sumo-sim.org/xsd/tllogic_file.xsd">
    <tlLogic id="0/1" type="static" programID="0" offset="0">
        <phase duration="31" state="GgrrGG"/>
        <phase duration="4" state="ygrryy"/>
        <phase duration="6" state="rGrrrr"/>
        <phase duration="4" state="ryrrrr"/>
        <phase duration="31" state="rrGGGr"/>
        <phase duration="4" state="rryyyr"/>
    </tlLogic>
    <tlLogic id="1/0" type="static" programID="0" offset="0">
        <phase duration="31" state="rrGGGg"/>
        <phase duration="4" state="rryyyg"/>
        <phase duration="6" state="rrrrrG"/>
        <phase duration="4" state="rrrrry"/>
        <phase duration="31" state="GGGrrr"/>
        <phase duration="4" state="yyyrrr"/>
    </tlLogic>
    <tlLogic id="1/1" type="static" programID="0" offset="0">
        <phase duration="31" state="rrrGGgrrrGGg"/>
        <phase duration="4" state="rrryygrrryyg"/>
        <phase duration="6" state="rrrrrGrrrrrG"/>
        <phase duration="4" state="rrrrryrrrrry"/>
        <phase duration="31" state="GGgrrrGGgrrr"/>
        <phase duration="4" state="yygrrryygrrr"/>
        <phase duration="6" state="rrGrrrrrGrrr"/>
        <phase duration="4" state="rryrrrrryrrr"/>
    </tlLogic>
    <tlLogic id="1/2" type="static" programID="0" offset="0">
        <phase duration="31" state="GgrrGG"/>
        <phase duration="4" state="ygrryy"/>
        <phase duration="6" state="rGrrrr"/>
        <phase duration="4" state="ryrrrr"/>
        <phase duration="31" state="rrGGGr"/>
        <phase duration="4" state="rryyyr"/>
    </tlLogic>
    <tlLogic id="2/1" type="static" programID="0" offset="0">
        <phase duration="31" state="GGGgrr"/>
        <phase duration="4" state="yyygrr"/>
        <phase duration="6" state="rrrGrr"/>
        <phase duration="4" state="rrryrr"/>
        <phase duration="31" state="GrrrGG"/>
        <phase duration="4" state="yrrryy"/>
    </tlLogic>

    <connection from="0/0to0/1" to="0/1to1/1" fromLane="0" toLane="0" tl="0/1" linkIndex="4"/>
    <connection from="0/0to0/1" to="0/1to0/2" fromLane="0" toLane="0" tl="0/1" linkIndex="5"/>
    <connection from="0/0to1/0" to="1/0to2/0" fromLane="0" toLane="0" tl="1/0" linkIndex="4"/>
    <connection from="0/0to1/0" to="1/0to1/1" fromLane="0" toLane="0" tl="1/0" linkIndex="5"/>
    <connection from="0/1to1/1" to="1/1to1/0" fromLane="0" toLane="0" tl="1/1" linkIndex="9"/>
    <connection from="0/1to1/1" to="1/1to2/1" fromLane="0" toLane="0" tl="1/1" linkIndex="10"/>
    <connection from="0/1to1/1" to="1/1to1/2" fromLane="0" toLane="0" tl="1/1" linkIndex="11"/>
    <connection from="0/2to0/1" to="0/1to0/0" fromLane="0" toLane="0" tl="0/1" linkIndex="0"/>
    <connection from="0/2to0/1" to="0/1to1/1" fromLane="0" toLane="0" tl="0/1" linkIndex="1"/>
    <connection from="0/2to1/2" to="1/2to1/1" fromLane="0" toLane="0" tl="1/2" linkIndex="4"/>
    <connection from="0/2to1/2" to="1/2to2/2" fromLane="0" toLane="0" tl="1/2" linkIndex="5"/>
    <connection from="1/0to1/1" to="1/1to2/1" fromLane="0" toLane="0" tl="1/1" linkIndex="6"/>
    <connection from="1/0to1/1" to="1/1to1/2" fromLane="0" toLane="0" tl="1/1" linkIndex="7"/>
    <connection from="1/0to1/1" to="1/1to0/1" fromLane="0" toLane="0" tl="1/1" linkIndex="8"/>
    <connection from="1/1to0/1" to="0/1to0/2" fromLane="0" toLane="0" tl="0/1" linkIndex="2"/>
    <connection from="1/1to0/1" to="0/1to0/0" fromLane="0" toLane="0" tl="0/1" linkIndex="3"/>
    <connection from="1/1to1/0" to="1/0to0/0" fromLane="0" toLane="0" tl="1/0" linkIndex="0"/>
    <connection from="1/1to1/0" to="1/0to2/0" fromLane="0" toLane="0" tl="1/0" linkIndex="1"/>
    <connection from="1/1to1/2" to="1/2to2/2" fromLane="0" toLane="0" tl="1/2" linkIndex="2"/>
    <connection from="1/1to1/2" to="1/2to0/2" fromLane="0" toLane="0" tl="1/2" linkIndex="3"/>
    <connection from="1/1to2/1" to="2/1to2/0" fromLane="0" toLane="0" tl="2/1" linkIndex="4"/>
    <connection from="1/1to2/1" to="2/1to2/2" fromLane="0" toLane="0" tl="2/1" linkIndex="5"/>
    <connection from="1/2to1/1" to="1/1to0/1" fromLane="0" toLane="0" tl="1/1" linkIndex="0"/>
    <connection from="1/2to1/1" to="1/1to1/0" fromLane="0" toLane="0" tl="1/1" linkIndex="1"/>
    <connection from="1/2to1/1" to="1/1to2/1" fromLane="0" toLane="0" tl="1/1" linkIndex="2"/>
    <connection from="2/0to1/0" to="1/0to1/1" fromLane="0" toLane="0" tl="1/0" linkIndex="2"/>
    <connection from="2/0to1/0" to="1/0to0/0" fromLane="0" toLane="0" tl="1/0" linkIndex="3"/>
    <connection from="2/0to2/1" to="2/1to2/2" fromLane="0" toLane="0" tl="2/1" linkIndex="2"/>
    <connection from="2/0to2/1" to="2/1to1/1" fromLane="0" toLane="0" tl="2/1" linkIndex="3"/>
    <connection from="2/1to1/1" to="1/1to1/2" fromLane="0" toLane="0" tl="1/1" linkIndex="3"/>
    <connection from="2/1to1/1" to="1/1to0/1" fromLane="0" toLane="0" tl="1/1" linkIndex="4"/>
    <connection from="2/1to1/1" to="1/1to1/0" fromLane="0" toLane="0" tl="1/1" linkIndex="5"/>
    <connection from="2/2to1/2" to="1/2to0/2" fromLane="0" toLane="0" tl="1/2" linkIndex="0"/>
    <connection from="2/2to1/2" to="1/2to1/1" fromLane="0" toLane="0" tl="1/2" linkIndex="1"/>
    <connection from="2/2to2/1" to="2/1to1/1" fromLane="0" toLane="0" tl="2/1" linkIndex="0"/>
    <connection from="2/2to2/1" to="2/1to2/0" fromLane="0" toLane="0" tl="2/1" linkIndex="1"/>
</tlLogics>
