<?xml version="1.0" encoding="UTF-8"?>

<!-- generated on Mon Dec  8 08:04:48 2014 by SUMO netgenerate Version 0.19.0
<?xml version="1.0" encoding="UTF-8"?>

<configuration xmlns:xsi="http://www.w3.org/2001/XMLSchema-instance" xsi:noNamespaceSchemaLocation="http://sumo-sim.org/xsd/netgenerateConfiguration.xsd">

    <grid_network>
        <grid value="true"/>
        <grid.x-number value="5"/>
        <grid.y-number value="5"/>
        <grid.x-length value="250"/>
        <grid.y-length value="250"/>
    </grid_network>

    <output>
        <output-file value="net.net.xml"/>
        <plain-output-prefix value="nodes"/>
    </output>

    <tls_building>
        <tls.guess value="true"/>
    </tls_building>

    <processing>
        <no-turnarounds value="true"/>
    </processing>

</configuration>
-->

<nodes version="0.13" xmlns:xsi="http://www.w3.org/2001/XMLSchema-instance" xsi:noNamespaceSchemaLocation="http://sumo-sim.org/xsd/nodes_file.xsd">
    <location netOffset="0.00,0.00" convBoundary="0.00,0.00,1000.00,1000.00" origBoundary="0.00,0.00,1000.00,1000.00" projParameter="!"/>

    <node id="0/0" x="0.00" y="0.00" type="priority"/>
    <node id="0/1" x="0.00" y="250.00" type="traffic_light" tl="0/1"/>
    <node id="0/2" x="0.00" y="500.00" type="traffic_light" tl="0/2"/>
    <node id="0/3" x="0.00" y="750.00" type="traffic_light" tl="0/3"/>
    <node id="0/4" x="0.00" y="1000.00" type="priority"/>
    <node id="1/0" x="250.00" y="0.00" type="traffic_light" tl="1/0"/>
    <node id="1/1" x="250.00" y="250.00" type="traffic_light" tl="1/1"/>
    <node id="1/2" x="250.00" y="500.00" type="traffic_light" tl="1/2"/>
    <node id="1/3" x="250.00" y="750.00" type="traffic_light" tl="1/3"/>
    <node id="1/4" x="250.00" y="1000.00" type="traffic_light" tl="1/4"/>
    <node id="2/0" x="500.00" y="0.00" type="traffic_light" tl="2/0"/>
    <node id="2/1" x="500.00" y="250.00" type="traffic_light" tl="2/1"/>
    <node id="2/2" x="500.00" y="500.00" type="traffic_light" tl="2/2"/>
    <node id="2/3" x="500.00" y="750.00" type="traffic_light" tl="2/3"/>
    <node id="2/4" x="500.00" y="1000.00" type="traffic_light" tl="2/4"/>
    <node id="3/0" x="750.00" y="0.00" type="traffic_light" tl="3/0"/>
    <node id="3/1" x="750.00" y="250.00" type="traffic_light" tl="3/1"/>
    <node id="3/2" x="750.00" y="500.00" type="traffic_light" tl="3/2"/>
    <node id="3/3" x="750.00" y="750.00" type="traffic_light" tl="3/3"/>
    <node id="3/4" x="750.00" y="1000.00" type="traffic_light" tl="3/4"/>
    <node id="4/0" x="1000.00" y="0.00" type="priority"/>
    <node id="4/1" x="1000.00" y="250.00" type="traffic_light" tl="4/1"/>
    <node id="4/2" x="1000.00" y="500.00" type="traffic_light" tl="4/2"/>
    <node id="4/3" x="1000.00" y="750.00" type="traffic_light" tl="4/3"/>
    <node id="4/4" x="1000.00" y="1000.00" type="priority"/>
</nodes>
