<?xml version="1.0" encoding="UTF-8"?>

<!-- generated on Mon Dec  8 08:04:48 2014 by SUMO netgenerate Version 0.19.0
<?xml version="1.0" encoding="UTF-8"?>

<configuration xmlns:xsi="http://www.w3.org/2001/XMLSchema-instance" xsi:noNamespaceSchemaLocation="http://sumo-sim.org/xsd/netgenerateConfiguration.xsd">

    <grid_network>
        <grid value="true"/>
        <grid.x-number value="5"/>
        <grid.y-number value="5"/>
        <grid.x-length value="250"/>
        <grid.y-length value="250"/>
    </grid_network>

    <output>
        <output-file value="net.net.xml"/>
        <plain-output-prefix value="nodes"/>
    </output>

    <tls_building>
        <tls.guess value="true"/>
    </tls_building>

    <processing>
        <no-turnarounds value="true"/>
    </processing>

</configuration>
-->

<connections version="0.13" xmlns:xsi="http://www.w3.org/2001/XMLSchema-instance" xsi:noNamespaceSchemaLocation="http://sumo-sim.org/xsd/connections_file.xsd">
    <connection from="0/0to0/1" to="0/1to1/1" fromLane="0" toLane="0"/>
    <connection from="0/0to0/1" to="0/1to0/2" fromLane="0" toLane="0"/>

    <connection from="0/0to1/0" to="1/0to2/0" fromLane="0" toLane="0"/>
    <connection from="0/0to1/0" to="1/0to1/1" fromLane="0" toLane="0"/>

    <connection from="0/1to0/0" to="0/0to1/0" fromLane="0" toLane="0"/>

    <connection from="0/1to0/2" to="0/2to1/2" fromLane="0" toLane="0"/>
    <connection from="0/1to0/2" to="0/2to0/3" fromLane="0" toLane="0"/>

    <connection from="0/1to1/1" to="1/1to1/0" fromLane="0" toLane="0"/>
    <connection from="0/1to1/1" to="1/1to2/1" fromLane="0" toLane="0"/>
    <connection from="0/1to1/1" to="1/1to1/2" fromLane="0" toLane="0"/>

    <connection from="0/2to0/1" to="0/1to0/0" fromLane="0" toLane="0"/>
    <connection from="0/2to0/1" to="0/1to1/1" fromLane="0" toLane="0"/>

    <connection from="0/2to0/3" to="0/3to1/3" fromLane="0" toLane="0"/>
    <connection from="0/2to0/3" to="0/3to0/4" fromLane="0" toLane="0"/>

    <connection from="0/2to1/2" to="1/2to1/1" fromLane="0" toLane="0"/>
    <connection from="0/2to1/2" to="1/2to2/2" fromLane="0" toLane="0"/>
    <connection from="0/2to1/2" to="1/2to1/3" fromLane="0" toLane="0"/>

    <connection from="0/3to0/2" to="0/2to0/1" fromLane="0" toLane="0"/>
    <connection from="0/3to0/2" to="0/2to1/2" fromLane="0" toLane="0"/>

    <connection from="0/3to0/4" to="0/4to1/4" fromLane="0" toLane="0"/>

    <connection from="0/3to1/3" to="1/3to1/2" fromLane="0" toLane="0"/>
    <connection from="0/3to1/3" to="1/3to2/3" fromLane="0" toLane="0"/>
    <connection from="0/3to1/3" to="1/3to1/4" fromLane="0" toLane="0"/>

    <connection from="0/4to0/3" to="0/3to0/2" fromLane="0" toLane="0"/>
    <connection from="0/4to0/3" to="0/3to1/3" fromLane="0" toLane="0"/>

    <connection from="0/4to1/4" to="1/4to1/3" fromLane="0" toLane="0"/>
    <connection from="0/4to1/4" to="1/4to2/4" fromLane="0" toLane="0"/>

    <connection from="1/0to0/0" to="0/0to0/1" fromLane="0" toLane="0"/>

    <connection from="1/0to1/1" to="1/1to2/1" fromLane="0" toLane="0"/>
    <connection from="1/0to1/1" to="1/1to1/2" fromLane="0" toLane="0"/>
    <connection from="1/0to1/1" to="1/1to0/1" fromLane="0" toLane="0"/>

    <connection from="1/0to2/0" to="2/0to3/0" fromLane="0" toLane="0"/>
    <connection from="1/0to2/0" to="2/0to2/1" fromLane="0" toLane="0"/>

    <connection from="1/1to0/1" to="0/1to0/2" fromLane="0" toLane="0"/>
    <connection from="1/1to0/1" to="0/1to0/0" fromLane="0" toLane="0"/>

    <connection from="1/1to1/0" to="1/0to0/0" fromLane="0" toLane="0"/>
    <connection from="1/1to1/0" to="1/0to2/0" fromLane="0" toLane="0"/>

    <connection from="1/1to1/2" to="1/2to2/2" fromLane="0" toLane="0"/>
    <connection from="1/1to1/2" to="1/2to1/3" fromLane="0" toLane="0"/>
    <connection from="1/1to1/2" to="1/2to0/2" fromLane="0" toLane="0"/>

    <connection from="1/1to2/1" to="2/1to2/0" fromLane="0" toLane="0"/>
    <connection from="1/1to2/1" to="2/1to3/1" fromLane="0" toLane="0"/>
    <connection from="1/1to2/1" to="2/1to2/2" fromLane="0" toLane="0"/>

    <connection from="1/2to0/2" to="0/2to0/3" fromLane="0" toLane="0"/>
    <connection from="1/2to0/2" to="0/2to0/1" fromLane="0" toLane="0"/>

    <connection from="1/2to1/1" to="1/1to0/1" fromLane="0" toLane="0"/>
    <connection from="1/2to1/1" to="1/1to1/0" fromLane="0" toLane="0"/>
    <connection from="1/2to1/1" to="1/1to2/1" fromLane="0" toLane="0"/>

    <connection from="1/2to1/3" to="1/3to2/3" fromLane="0" toLane="0"/>
    <connection from="1/2to1/3" to="1/3to1/4" fromLane="0" toLane="0"/>
    <connection from="1/2to1/3" to="1/3to0/3" fromLane="0" toLane="0"/>

    <connection from="1/2to2/2" to="2/2to2/1" fromLane="0" toLane="0"/>
    <connection from="1/2to2/2" to="2/2to3/2" fromLane="0" toLane="0"/>
    <connection from="1/2to2/2" to="2/2to2/3" fromLane="0" toLane="0"/>

    <connection from="1/3to0/3" to="0/3to0/4" fromLane="0" toLane="0"/>
    <connection from="1/3to0/3" to="0/3to0/2" fromLane="0" toLane="0"/>

    <connection from="1/3to1/2" to="1/2to0/2" fromLane="0" toLane="0"/>
    <connection from="1/3to1/2" to="1/2to1/1" fromLane="0" toLane="0"/>
    <connection from="1/3to1/2" to="1/2to2/2" fromLane="0" toLane="0"/>

    <connection from="1/3to1/4" to="1/4to2/4" fromLane="0" toLane="0"/>
    <connection from="1/3to1/4" to="1/4to0/4" fromLane="0" toLane="0"/>

    <connection from="1/3to2/3" to="2/3to2/2" fromLane="0" toLane="0"/>
    <connection from="1/3to2/3" to="2/3to3/3" fromLane="0" toLane="0"/>
    <connection from="1/3to2/3" to="2/3to2/4" fromLane="0" toLane="0"/>

    <connection from="1/4to0/4" to="0/4to0/3" fromLane="0" toLane="0"/>

    <connection from="1/4to1/3" to="1/3to0/3" fromLane="0" toLane="0"/>
    <connection from="1/4to1/3" to="1/3to1/2" fromLane="0" toLane="0"/>
    <connection from="1/4to1/3" to="1/3to2/3" fromLane="0" toLane="0"/>

    <connection from="1/4to2/4" to="2/4to2/3" fromLane="0" toLane="0"/>
    <connection from="1/4to2/4" to="2/4to3/4" fromLane="0" toLane="0"/>

    <connection from="2/0to1/0" to="1/0to1/1" fromLane="0" toLane="0"/>
    <connection from="2/0to1/0" to="1/0to0/0" fromLane="0" toLane="0"/>

    <connection from="2/0to2/1" to="2/1to3/1" fromLane="0" toLane="0"/>
    <connection from="2/0to2/1" to="2/1to2/2" fromLane="0" toLane="0"/>
    <connection from="2/0to2/1" to="2/1to1/1" fromLane="0" toLane="0"/>

    <connection from="2/0to3/0" to="3/0to4/0" fromLane="0" toLane="0"/>
    <connection from="2/0to3/0" to="3/0to3/1" fromLane="0" toLane="0"/>

    <connection from="2/1to1/1" to="1/1to1/2" fromLane="0" toLane="0"/>
    <connection from="2/1to1/1" to="1/1to0/1" fromLane="0" toLane="0"/>
    <connection from="2/1to1/1" to="1/1to1/0" fromLane="0" toLane="0"/>

    <connection from="2/1to2/0" to="2/0to1/0" fromLane="0" toLane="0"/>
    <connection from="2/1to2/0" to="2/0to3/0" fromLane="0" toLane="0"/>

    <connection from="2/1to2/2" to="2/2to3/2" fromLane="0" toLane="0"/>
    <connection from="2/1to2/2" to="2/2to2/3" fromLane="0" toLane="0"/>
    <connection from="2/1to2/2" to="2/2to1/2" fromLane="0" toLane="0"/>

    <connection from="2/1to3/1" to="3/1to3/0" fromLane="0" toLane="0"/>
    <connection from="2/1to3/1" to="3/1to4/1" fromLane="0" toLane="0"/>
    <connection from="2/1to3/1" to="3/1to3/2" fromLane="0" toLane="0"/>

    <connection from="2/2to1/2" to="1/2to1/3" fromLane="0" toLane="0"/>
    <connection from="2/2to1/2" to="1/2to0/2" fromLane="0" toLane="0"/>
    <connection from="2/2to1/2" to="1/2to1/1" fromLane="0" toLane="0"/>

    <connection from="2/2to2/1" to="2/1to1/1" fromLane="0" toLane="0"/>
    <connection from="2/2to2/1" to="2/1to2/0" fromLane="0" toLane="0"/>
    <connection from="2/2to2/1" to="2/1to3/1" fromLane="0" toLane="0"/>

    <connection from="2/2to2/3" to="2/3to3/3" fromLane="0" toLane="0"/>
    <connection from="2/2to2/3" to="2/3to2/4" fromLane="0" toLane="0"/>
    <connection from="2/2to2/3" to="2/3to1/3" fromLane="0" toLane="0"/>

    <connection from="2/2to3/2" to="3/2to3/1" fromLane="0" toLane="0"/>
    <connection from="2/2to3/2" to="3/2to4/2" fromLane="0" toLane="0"/>
    <connection from="2/2to3/2" to="3/2to3/3" fromLane="0" toLane="0"/>

    <connection from="2/3to1/3" to="1/3to1/4" fromLane="0" toLane="0"/>
    <connection from="2/3to1/3" to="1/3to0/3" fromLane="0" toLane="0"/>
    <connection from="2/3to1/3" to="1/3to1/2" fromLane="0" toLane="0"/>

    <connection from="2/3to2/2" to="2/2to1/2" fromLane="0" toLane="0"/>
    <connection from="2/3to2/2" to="2/2to2/1" fromLane="0" toLane="0"/>
    <connection from="2/3to2/2" to="2/2to3/2" fromLane="0" toLane="0"/>

    <connection from="2/3to2/4" to="2/4to3/4" fromLane="0" toLane="0"/>
    <connection from="2/3to2/4" to="2/4to1/4" fromLane="0" toLane="0"/>

    <connection from="2/3to3/3" to="3/3to3/2" fromLane="0" toLane="0"/>
    <connection from="2/3to3/3" to="3/3to4/3" fromLane="0" toLane="0"/>
    <connection from="2/3to3/3" to="3/3to3/4" fromLane="0" toLane="0"/>

    <connection from="2/4to1/4" to="1/4to0/4" fromLane="0" toLane="0"/>
    <connection from="2/4to1/4" to="1/4to1/3" fromLane="0" toLane="0"/>

    <connection from="2/4to2/3" to="2/3to1/3" fromLane="0" toLane="0"/>
    <connection from="2/4to2/3" to="2/3to2/2" fromLane="0" toLane="0"/>
    <connection from="2/4to2/3" to="2/3to3/3" fromLane="0" toLane="0"/>

    <connection from="2/4to3/4" to="3/4to3/3" fromLane="0" toLane="0"/>
    <connection from="2/4to3/4" to="3/4to4/4" fromLane="0" toLane="0"/>

    <connection from="3/0to2/0" to="2/0to2/1" fromLane="0" toLane="0"/>
    <connection from="3/0to2/0" to="2/0to1/0" fromLane="0" toLane="0"/>

    <connection from="3/0to3/1" to="3/1to4/1" fromLane="0" toLane="0"/>
    <connection from="3/0to3/1" to="3/1to3/2" fromLane="0" toLane="0"/>
    <connection from="3/0to3/1" to="3/1to2/1" fromLane="0" toLane="0"/>

    <connection from="3/0to4/0" to="4/0to4/1" fromLane="0" toLane="0"/>

    <connection from="3/1to2/1" to="2/1to2/2" fromLane="0" toLane="0"/>
    <connection from="3/1to2/1" to="2/1to1/1" fromLane="0" toLane="0"/>
    <connection from="3/1to2/1" to="2/1to2/0" fromLane="0" toLane="0"/>

    <connection from="3/1to3/0" to="3/0to2/0" fromLane="0" toLane="0"/>
    <connection from="3/1to3/0" to="3/0to4/0" fromLane="0" toLane="0"/>

    <connection from="3/1to3/2" to="3/2to4/2" fromLane="0" toLane="0"/>
    <connection from="3/1to3/2" to="3/2to3/3" fromLane="0" toLane="0"/>
    <connection from="3/1to3/2" to="3/2to2/2" fromLane="0" toLane="0"/>

    <connection from="3/1to4/1" to="4/1to4/0" fromLane="0" toLane="0"/>
    <connection from="3/1to4/1" to="4/1to4/2" fromLane="0" toLane="0"/>

    <connection from="3/2to2/2" to="2/2to2/3" fromLane="0" toLane="0"/>
    <connection from="3/2to2/2" to="2/2to1/2" fromLane="0" toLane="0"/>
    <connection from="3/2to2/2" to="2/2to2/1" fromLane="0" toLane="0"/>

    <connection from="3/2to3/1" to="3/1to2/1" fromLane="0" toLane="0"/>
    <connection from="3/2to3/1" to="3/1to3/0" fromLane="0" toLane="0"/>
    <connection from="3/2to3/1" to="3/1to4/1" fromLane="0" toLane="0"/>

    <connection from="3/2to3/3" to="3/3to4/3" fromLane="0" toLane="0"/>
    <connection from="3/2to3/3" to="3/3to3/4" fromLane="0" toLane="0"/>
    <connection from="3/2to3/3" to="3/3to2/3" fromLane="0" toLane="0"/>

    <connection from="3/2to4/2" to="4/2to4/1" fromLane="0" toLane="0"/>
    <connection from="3/2to4/2" to="4/2to4/3" fromLane="0" toLane="0"/>

    <connection from="3/3to2/3" to="2/3to2/4" fromLane="0" toLane="0"/>
    <connection from="3/3to2/3" to="2/3to1/3" fromLane="0" toLane="0"/>
    <connection from="3/3to2/3" to="2/3to2/2" fromLane="0" toLane="0"/>

    <connection from="3/3to3/2" to="3/2to2/2" fromLane="0" toLane="0"/>
    <connection from="3/3to3/2" to="3/2to3/1" fromLane="0" toLane="0"/>
    <connection from="3/3to3/2" to="3/2to4/2" fromLane="0" toLane="0"/>

    <connection from="3/3to3/4" to="3/4to4/4" fromLane="0" toLane="0"/>
    <connection from="3/3to3/4" to="3/4to2/4" fromLane="0" toLane="0"/>

    <connection from="3/3to4/3" to="4/3to4/2" fromLane="0" toLane="0"/>
    <connection from="3/3to4/3" to="4/3to4/4" fromLane="0" toLane="0"/>

    <connection from="3/4to2/4" to="2/4to1/4" fromLane="0" toLane="0"/>
    <connection from="3/4to2/4" to="2/4to2/3" fromLane="0" toLane="0"/>

    <connection from="3/4to3/3" to="3/3to2/3" fromLane="0" toLane="0"/>
    <connection from="3/4to3/3" to="3/3to3/2" fromLane="0" toLane="0"/>
    <connection from="3/4to3/3" to="3/3to4/3" fromLane="0" toLane="0"/>

    <connection from="3/4to4/4" to="4/4to4/3" fromLane="0" toLane="0"/>

    <connection from="4/0to3/0" to="3/0to3/1" fromLane="0" toLane="0"/>
    <connection from="4/0to3/0" to="3/0to2/0" fromLane="0" toLane="0"/>

    <connection from="4/0to4/1" to="4/1to4/2" fromLane="0" toLane="0"/>
    <connection from="4/0to4/1" to="4/1to3/1" fromLane="0" toLane="0"/>

    <connection from="4/1to3/1" to="3/1to3/2" fromLane="0" toLane="0"/>
    <connection from="4/1to3/1" to="3/1to2/1" fromLane="0" toLane="0"/>
    <connection from="4/1to3/1" to="3/1to3/0" fromLane="0" toLane="0"/>

    <connection from="4/1to4/0" to="4/0to3/0" fromLane="0" toLane="0"/>

    <connection from="4/1to4/2" to="4/2to4/3" fromLane="0" toLane="0"/>
    <connection from="4/1to4/2" to="4/2to3/2" fromLane="0" toLane="0"/>

    <connection from="4/2to3/2" to="3/2to3/3" fromLane="0" toLane="0"/>
    <connection from="4/2to3/2" to="3/2to2/2" fromLane="0" toLane="0"/>
    <connection from="4/2to3/2" to="3/2to3/1" fromLane="0" toLane="0"/>

    <connection from="4/2to4/1" to="4/1to3/1" fromLane="0" toLane="0"/>
    <connection from="4/2to4/1" to="4/1to4/0" fromLane="0" toLane="0"/>

    <connection from="4/2to4/3" to="4/3to4/4" fromLane="0" toLane="0"/>
    <connection from="4/2to4/3" to="4/3to3/3" fromLane="0" toLane="0"/>

    <connection from="4/3to3/3" to="3/3to3/4" fromLane="0" toLane="0"/>
    <connection from="4/3to3/3" to="3/3to2/3" fromLane="0" toLane="0"/>
    <connection from="4/3to3/3" to="3/3to3/2" fromLane="0" toLane="0"/>

    <connection from="4/3to4/2" to="4/2to3/2" fromLane="0" toLane="0"/>
    <connection from="4/3to4/2" to="4/2to4/1" fromLane="0" toLane="0"/>

    <connection from="4/3to4/4" to="4/4to3/4" fromLane="0" toLane="0"/>

    <connection from="4/4to3/4" to="3/4to2/4" fromLane="0" toLane="0"/>
    <connection from="4/4to3/4" to="3/4to3/3" fromLane="0" toLane="0"/>

    <connection from="4/4to4/3" to="4/3to3/3" fromLane="0" toLane="0"/>
    <connection from="4/4to4/3" to="4/3to4/2" fromLane="0" toLane="0"/>

</connections>
