<?xml version="1.0" encoding="UTF-8"?>

<!-- generated on Mon Dec  8 08:06:39 2014 by SUMO netgenerate Version 0.19.0
<?xml version="1.0" encoding="UTF-8"?>

<configuration xmlns:xsi="http://www.w3.org/2001/XMLSchema-instance" xsi:noNamespaceSchemaLocation="http://sumo-sim.org/xsd/netgenerateConfiguration.xsd">

    <grid_network>
        <grid value="true"/>
        <grid.x-number value="4"/>
        <grid.y-number value="4"/>
        <grid.x-length value="200"/>
        <grid.y-length value="200"/>
    </grid_network>

    <output>
        <output-file value="net.net.xml"/>
        <plain-output-prefix value="nodes"/>
    </output>

    <tls_building>
        <tls.guess value="true"/>
    </tls_building>

    <processing>
        <no-turnarounds value="true"/>
    </processing>

</configuration>
-->

<net version="0.13" xmlns:xsi="http://www.w3.org/2001/XMLSchema-instance" xsi:noNamespaceSchemaLocation="http://sumo-sim.org/xsd/net_file.xsd">

    <location netOffset="0.00,0.00" convBoundary="0.00,0.00,600.00,600.00" origBoundary="0.00,0.00,600.00,600.00" projParameter="!"/>

    <edge id=":0/0_0" function="internal">
        <lane id=":0/0_0_0" index="0" speed="13.90" length="7.90" shape="-1.65,3.25 -1.34,1.11 -0.42,-0.43 1.11,-1.34 3.25,-1.65"/>
    </edge>
    <edge id=":0/0_1" function="internal">
        <lane id=":0/0_1_0" index="0" speed="13.90" length="2.58" shape="3.25,1.65 2.55,1.75 2.05,2.05 1.75,2.55 1.65,3.25"/>
    </edge>
    <edge id=":0/1_0" function="internal">
        <lane id=":0/1_0_0" index="0" speed="13.90" length="9.50" shape="-1.65,204.75 -1.65,195.25"/>
    </edge>
    <edge id=":0/1_1" function="internal">
        <lane id=":0/1_1_0" index="0" speed="13.90" length="7.14" shape="-1.65,204.75 -1.25,201.95 -0.05,199.95 1.65,198.93"/>
    </edge>
    <edge id=":0/1_6" function="internal">
        <lane id=":0/1_6_0" index="0" speed="13.90" length="3.18" shape="1.65,198.93 1.95,198.75 4.75,198.35"/>
    </edge>
    <edge id=":0/1_2" function="internal">
        <lane id=":0/1_2_0" index="0" speed="13.90" length="5.00" shape="4.75,201.65 3.39,201.84 2.43,202.43 1.84,203.39 1.65,204.75"/>
    </edge>
    <edge id=":0/1_3" function="internal">
        <lane id=":0/1_3_0" index="0" speed="13.90" length="3.18" shape="4.75,201.65 1.95,201.25 1.65,201.07"/>
    </edge>
    <edge id=":0/1_7" function="internal">
        <lane id=":0/1_7_0" index="0" speed="13.90" length="7.14" shape="1.65,201.07 -0.05,200.05 -1.25,198.05 -1.65,195.25"/>
    </edge>
    <edge id=":0/1_4" function="internal">
        <lane id=":0/1_4_0" index="0" speed="13.90" length="5.00" shape="1.65,195.25 1.84,196.61 2.42,197.57 3.39,198.16 4.75,198.35"/>
    </edge>
    <edge id=":0/1_5" function="internal">
        <lane id=":0/1_5_0" index="0" speed="13.90" length="9.50" shape="1.65,195.25 1.65,204.75"/>
    </edge>
    <edge id=":0/2_0" function="internal">
        <lane id=":0/2_0_0" index="0" speed="13.90" length="9.50" shape="-1.65,404.75 -1.65,395.25"/>
    </edge>
    <edge id=":0/2_1" function="internal">
        <lane id=":0/2_1_0" index="0" speed="13.90" length="7.14" shape="-1.65,404.75 -1.25,401.95 -0.05,399.95 1.65,398.93"/>
    </edge>
    <edge id=":0/2_6" function="internal">
        <lane id=":0/2_6_0" index="0" speed="13.90" length="3.18" shape="1.65,398.93 1.95,398.75 4.75,398.35"/>
    </edge>
    <edge id=":0/2_2" function="internal">
        <lane id=":0/2_2_0" index="0" speed="13.90" length="5.00" shape="4.75,401.65 3.39,401.84 2.43,402.42 1.84,403.39 1.65,404.75"/>
    </edge>
    <edge id=":0/2_3" function="internal">
        <lane id=":0/2_3_0" index="0" speed="13.90" length="3.18" shape="4.75,401.65 1.95,401.25 1.65,401.07"/>
    </edge>
    <edge id=":0/2_7" function="internal">
        <lane id=":0/2_7_0" index="0" speed="13.90" length="7.14" shape="1.65,401.07 -0.05,400.05 -1.25,398.05 -1.65,395.25"/>
    </edge>
    <edge id=":0/2_4" function="internal">
        <lane id=":0/2_4_0" index="0" speed="13.90" length="5.00" shape="1.65,395.25 1.84,396.61 2.42,397.58 3.39,398.16 4.75,398.35"/>
    </edge>
    <edge id=":0/2_5" function="internal">
        <lane id=":0/2_5_0" index="0" speed="13.90" length="9.50" shape="1.65,395.25 1.65,404.75"/>
    </edge>
    <edge id=":0/3_0" function="internal">
        <lane id=":0/3_0_0" index="0" speed="13.90" length="7.90" shape="3.25,601.65 1.11,601.34 -0.43,600.42 -1.34,598.89 -1.65,596.75"/>
    </edge>
    <edge id=":0/3_1" function="internal">
        <lane id=":0/3_1_0" index="0" speed="13.90" length="2.58" shape="1.65,596.75 1.75,597.45 2.05,597.95 2.55,598.25 3.25,598.35"/>
    </edge>
    <edge id=":1/0_0" function="internal">
        <lane id=":1/0_0_0" index="0" speed="13.90" length="5.00" shape="198.35,4.75 198.16,3.39 197.57,2.43 196.61,1.84 195.25,1.65"/>
    </edge>
    <edge id=":1/0_1" function="internal">
        <lane id=":1/0_1_0" index="0" speed="13.90" length="3.18" shape="198.35,4.75 198.75,1.95 198.93,1.65"/>
    </edge>
    <edge id=":1/0_6" function="internal">
        <lane id=":1/0_6_0" index="0" speed="13.90" length="7.14" shape="198.93,1.65 199.95,-0.05 201.95,-1.25 204.75,-1.65"/>
    </edge>
    <edge id=":1/0_2" function="internal">
        <lane id=":1/0_2_0" index="0" speed="13.90" length="5.00" shape="204.75,1.65 203.39,1.84 202.42,2.42 201.84,3.39 201.65,4.75"/>
    </edge>
    <edge id=":1/0_3" function="internal">
        <lane id=":1/0_3_0" index="0" speed="13.90" length="9.50" shape="204.75,1.65 195.25,1.65"/>
    </edge>
    <edge id=":1/0_4" function="internal">
        <lane id=":1/0_4_0" index="0" speed="13.90" length="9.50" shape="195.25,-1.65 204.75,-1.65"/>
    </edge>
    <edge id=":1/0_5" function="internal">
        <lane id=":1/0_5_0" index="0" speed="13.90" length="7.14" shape="195.25,-1.65 198.05,-1.25 200.05,-0.05 201.07,1.65"/>
    </edge>
    <edge id=":1/0_7" function="internal">
        <lane id=":1/0_7_0" index="0" speed="13.90" length="3.18" shape="201.07,1.65 201.25,1.95 201.65,4.75"/>
    </edge>
    <edge id=":1/1_0" function="internal">
        <lane id=":1/1_0_0" index="0" speed="13.90" length="5.00" shape="198.35,204.75 198.16,203.39 197.57,202.42 196.61,201.84 195.25,201.65"/>
    </edge>
    <edge id=":1/1_1" function="internal">
        <lane id=":1/1_1_0" index="0" speed="13.90" length="9.50" shape="198.35,204.75 198.35,195.25"/>
    </edge>
    <edge id=":1/1_2" function="internal">
        <lane id=":1/1_2_0" index="0" speed="13.90" length="3.18" shape="198.35,204.75 198.75,201.95 198.93,201.65"/>
    </edge>
    <edge id=":1/1_12" function="internal">
        <lane id=":1/1_12_0" index="0" speed="13.90" length="7.14" shape="198.93,201.65 199.95,199.95 201.95,198.75 204.75,198.35"/>
    </edge>
    <edge id=":1/1_3" function="internal">
        <lane id=":1/1_3_0" index="0" speed="13.90" length="5.00" shape="204.75,201.65 203.39,201.84 202.42,202.43 201.84,203.39 201.65,204.75"/>
    </edge>
    <edge id=":1/1_4" function="internal">
        <lane id=":1/1_4_0" index="0" speed="13.90" length="9.50" shape="204.75,201.65 195.25,201.65"/>
    </edge>
    <edge id=":1/1_5" function="internal">
        <lane id=":1/1_5_0" index="0" speed="13.90" length="3.18" shape="204.75,201.65 201.95,201.25 201.65,201.07"/>
    </edge>
    <edge id=":1/1_13" function="internal">
        <lane id=":1/1_13_0" index="0" speed="13.90" length="7.14" shape="201.65,201.07 199.95,200.05 198.75,198.05 198.35,195.25"/>
    </edge>
    <edge id=":1/1_6" function="internal">
        <lane id=":1/1_6_0" index="0" speed="13.90" length="5.00" shape="201.65,195.25 201.84,196.61 202.43,197.58 203.39,198.16 204.75,198.35"/>
    </edge>
    <edge id=":1/1_7" function="internal">
        <lane id=":1/1_7_0" index="0" speed="13.90" length="9.50" shape="201.65,195.25 201.65,204.75"/>
    </edge>
    <edge id=":1/1_8" function="internal">
        <lane id=":1/1_8_0" index="0" speed="13.90" length="3.18" shape="201.65,195.25 201.25,198.05 201.07,198.35"/>
    </edge>
    <edge id=":1/1_14" function="internal">
        <lane id=":1/1_14_0" index="0" speed="13.90" length="7.14" shape="201.07,198.35 200.05,200.05 198.05,201.25 195.25,201.65"/>
    </edge>
    <edge id=":1/1_9" function="internal">
        <lane id=":1/1_9_0" index="0" speed="13.90" length="5.00" shape="195.25,198.35 196.61,198.16 197.58,197.57 198.16,196.61 198.35,195.25"/>
    </edge>
    <edge id=":1/1_10" function="internal">
        <lane id=":1/1_10_0" index="0" speed="13.90" length="9.50" shape="195.25,198.35 204.75,198.35"/>
    </edge>
    <edge id=":1/1_11" function="internal">
        <lane id=":1/1_11_0" index="0" speed="13.90" length="3.18" shape="195.25,198.35 198.05,198.75 198.35,198.93"/>
    </edge>
    <edge id=":1/1_15" function="internal">
        <lane id=":1/1_15_0" index="0" speed="13.90" length="7.14" shape="198.35,198.93 200.05,199.95 201.25,201.95 201.65,204.75"/>
    </edge>
    <edge id=":1/2_0" function="internal">
        <lane id=":1/2_0_0" index="0" speed="13.90" length="5.00" shape="198.35,404.75 198.16,403.39 197.57,402.42 196.61,401.84 195.25,401.65"/>
    </edge>
    <edge id=":1/2_1" function="internal">
        <lane id=":1/2_1_0" index="0" speed="13.90" length="9.50" shape="198.35,404.75 198.35,395.25"/>
    </edge>
    <edge id=":1/2_2" function="internal">
        <lane id=":1/2_2_0" index="0" speed="13.90" length="3.18" shape="198.35,404.75 198.75,401.95 198.93,401.65"/>
    </edge>
    <edge id=":1/2_12" function="internal">
        <lane id=":1/2_12_0" index="0" speed="13.90" length="7.14" shape="198.93,401.65 199.95,399.95 201.95,398.75 204.75,398.35"/>
    </edge>
    <edge id=":1/2_3" function="internal">
        <lane id=":1/2_3_0" index="0" speed="13.90" length="5.00" shape="204.75,401.65 203.39,401.84 202.42,402.42 201.84,403.39 201.65,404.75"/>
    </edge>
    <edge id=":1/2_4" function="internal">
        <lane id=":1/2_4_0" index="0" speed="13.90" length="9.50" shape="204.75,401.65 195.25,401.65"/>
    </edge>
    <edge id=":1/2_5" function="internal">
        <lane id=":1/2_5_0" index="0" speed="13.90" length="3.18" shape="204.75,401.65 201.95,401.25 201.65,401.07"/>
    </edge>
    <edge id=":1/2_13" function="internal">
        <lane id=":1/2_13_0" index="0" speed="13.90" length="7.14" shape="201.65,401.07 199.95,400.05 198.75,398.05 198.35,395.25"/>
    </edge>
    <edge id=":1/2_6" function="internal">
        <lane id=":1/2_6_0" index="0" speed="13.90" length="5.00" shape="201.65,395.25 201.84,396.61 202.43,397.58 203.39,398.16 204.75,398.35"/>
    </edge>
    <edge id=":1/2_7" function="internal">
        <lane id=":1/2_7_0" index="0" speed="13.90" length="9.50" shape="201.65,395.25 201.65,404.75"/>
    </edge>
    <edge id=":1/2_8" function="internal">
        <lane id=":1/2_8_0" index="0" speed="13.90" length="3.18" shape="201.65,395.25 201.25,398.05 201.07,398.35"/>
    </edge>
    <edge id=":1/2_14" function="internal">
        <lane id=":1/2_14_0" index="0" speed="13.90" length="7.14" shape="201.07,398.35 200.05,400.05 198.05,401.25 195.25,401.65"/>
    </edge>
    <edge id=":1/2_9" function="internal">
        <lane id=":1/2_9_0" index="0" speed="13.90" length="5.00" shape="195.25,398.35 196.61,398.16 197.58,397.58 198.16,396.61 198.35,395.25"/>
    </edge>
    <edge id=":1/2_10" function="internal">
        <lane id=":1/2_10_0" index="0" speed="13.90" length="9.50" shape="195.25,398.35 204.75,398.35"/>
    </edge>
    <edge id=":1/2_11" function="internal">
        <lane id=":1/2_11_0" index="0" speed="13.90" length="3.18" shape="195.25,398.35 198.05,398.75 198.35,398.93"/>
    </edge>
    <edge id=":1/2_15" function="internal">
        <lane id=":1/2_15_0" index="0" speed="13.90" length="7.14" shape="198.35,398.93 200.05,399.95 201.25,401.95 201.65,404.75"/>
    </edge>
    <edge id=":1/3_0" function="internal">
        <lane id=":1/3_0_0" index="0" speed="13.90" length="9.50" shape="204.75,601.65 195.25,601.65"/>
    </edge>
    <edge id=":1/3_1" function="internal">
        <lane id=":1/3_1_0" index="0" speed="13.90" length="7.14" shape="204.75,601.65 201.95,601.25 199.95,600.05 198.93,598.35"/>
    </edge>
    <edge id=":1/3_6" function="internal">
        <lane id=":1/3_6_0" index="0" speed="13.90" length="3.18" shape="198.93,598.35 198.75,598.05 198.35,595.25"/>
    </edge>
    <edge id=":1/3_2" function="internal">
        <lane id=":1/3_2_0" index="0" speed="13.90" length="5.00" shape="201.65,595.25 201.84,596.61 202.43,597.58 203.39,598.16 204.75,598.35"/>
    </edge>
    <edge id=":1/3_3" function="internal">
        <lane id=":1/3_3_0" index="0" speed="13.90" length="3.18" shape="201.65,595.25 201.25,598.05 201.07,598.35"/>
    </edge>
    <edge id=":1/3_7" function="internal">
        <lane id=":1/3_7_0" index="0" speed="13.90" length="7.14" shape="201.07,598.35 200.05,600.05 198.05,601.25 195.25,601.65"/>
    </edge>
    <edge id=":1/3_4" function="internal">
        <lane id=":1/3_4_0" index="0" speed="13.90" length="5.00" shape="195.25,598.35 196.61,598.16 197.57,597.58 198.16,596.61 198.35,595.25"/>
    </edge>
    <edge id=":1/3_5" function="internal">
        <lane id=":1/3_5_0" index="0" speed="13.90" length="9.50" shape="195.25,598.35 204.75,598.35"/>
    </edge>
    <edge id=":2/0_0" function="internal">
        <lane id=":2/0_0_0" index="0" speed="13.90" length="5.00" shape="398.35,4.75 398.16,3.39 397.58,2.43 396.61,1.84 395.25,1.65"/>
    </edge>
    <edge id=":2/0_1" function="internal">
        <lane id=":2/0_1_0" index="0" speed="13.90" length="3.18" shape="398.35,4.75 398.75,1.95 398.93,1.65"/>
    </edge>
    <edge id=":2/0_6" function="internal">
        <lane id=":2/0_6_0" index="0" speed="13.90" length="7.14" shape="398.93,1.65 399.95,-0.05 401.95,-1.25 404.75,-1.65"/>
    </edge>
    <edge id=":2/0_2" function="internal">
        <lane id=":2/0_2_0" index="0" speed="13.90" length="5.00" shape="404.75,1.65 403.39,1.84 402.42,2.42 401.84,3.39 401.65,4.75"/>
    </edge>
    <edge id=":2/0_3" function="internal">
        <lane id=":2/0_3_0" index="0" speed="13.90" length="9.50" shape="404.75,1.65 395.25,1.65"/>
    </edge>
    <edge id=":2/0_4" function="internal">
        <lane id=":2/0_4_0" index="0" speed="13.90" length="9.50" shape="395.25,-1.65 404.75,-1.65"/>
    </edge>
    <edge id=":2/0_5" function="internal">
        <lane id=":2/0_5_0" index="0" speed="13.90" length="7.14" shape="395.25,-1.65 398.05,-1.25 400.05,-0.05 401.07,1.65"/>
    </edge>
    <edge id=":2/0_7" function="internal">
        <lane id=":2/0_7_0" index="0" speed="13.90" length="3.18" shape="401.07,1.65 401.25,1.95 401.65,4.75"/>
    </edge>
    <edge id=":2/1_0" function="internal">
        <lane id=":2/1_0_0" index="0" speed="13.90" length="5.00" shape="398.35,204.75 398.16,203.39 397.58,202.42 396.61,201.84 395.25,201.65"/>
    </edge>
    <edge id=":2/1_1" function="internal">
        <lane id=":2/1_1_0" index="0" speed="13.90" length="9.50" shape="398.35,204.75 398.35,195.25"/>
    </edge>
    <edge id=":2/1_2" function="internal">
        <lane id=":2/1_2_0" index="0" speed="13.90" length="3.18" shape="398.35,204.75 398.75,201.95 398.93,201.65"/>
    </edge>
    <edge id=":2/1_12" function="internal">
        <lane id=":2/1_12_0" index="0" speed="13.90" length="7.14" shape="398.93,201.65 399.95,199.95 401.95,198.75 404.75,198.35"/>
    </edge>
    <edge id=":2/1_3" function="internal">
        <lane id=":2/1_3_0" index="0" speed="13.90" length="5.00" shape="404.75,201.65 403.39,201.84 402.42,202.43 401.84,203.39 401.65,204.75"/>
    </edge>
    <edge id=":2/1_4" function="internal">
        <lane id=":2/1_4_0" index="0" speed="13.90" length="9.50" shape="404.75,201.65 395.25,201.65"/>
    </edge>
    <edge id=":2/1_5" function="internal">
        <lane id=":2/1_5_0" index="0" speed="13.90" length="3.18" shape="404.75,201.65 401.95,201.25 401.65,201.07"/>
    </edge>
    <edge id=":2/1_13" function="internal">
        <lane id=":2/1_13_0" index="0" speed="13.90" length="7.14" shape="401.65,201.07 399.95,200.05 398.75,198.05 398.35,195.25"/>
    </edge>
    <edge id=":2/1_6" function="internal">
        <lane id=":2/1_6_0" index="0" speed="13.90" length="5.00" shape="401.65,195.25 401.84,196.61 402.42,197.58 403.39,198.16 404.75,198.35"/>
    </edge>
    <edge id=":2/1_7" function="internal">
        <lane id=":2/1_7_0" index="0" speed="13.90" length="9.50" shape="401.65,195.25 401.65,204.75"/>
    </edge>
    <edge id=":2/1_8" function="internal">
        <lane id=":2/1_8_0" index="0" speed="13.90" length="3.18" shape="401.65,195.25 401.25,198.05 401.07,198.35"/>
    </edge>
    <edge id=":2/1_14" function="internal">
        <lane id=":2/1_14_0" index="0" speed="13.90" length="7.14" shape="401.07,198.35 400.05,200.05 398.05,201.25 395.25,201.65"/>
    </edge>
    <edge id=":2/1_9" function="internal">
        <lane id=":2/1_9_0" index="0" speed="13.90" length="5.00" shape="395.25,198.35 396.61,198.16 397.58,197.57 398.16,196.61 398.35,195.25"/>
    </edge>
    <edge id=":2/1_10" function="internal">
        <lane id=":2/1_10_0" index="0" speed="13.90" length="9.50" shape="395.25,198.35 404.75,198.35"/>
    </edge>
    <edge id=":2/1_11" function="internal">
        <lane id=":2/1_11_0" index="0" speed="13.90" length="3.18" shape="395.25,198.35 398.05,198.75 398.35,198.93"/>
    </edge>
    <edge id=":2/1_15" function="internal">
        <lane id=":2/1_15_0" index="0" speed="13.90" length="7.14" shape="398.35,198.93 400.05,199.95 401.25,201.95 401.65,204.75"/>
    </edge>
    <edge id=":2/2_0" function="internal">
        <lane id=":2/2_0_0" index="0" speed="13.90" length="5.00" shape="398.35,404.75 398.16,403.39 397.58,402.42 396.61,401.84 395.25,401.65"/>
    </edge>
    <edge id=":2/2_1" function="internal">
        <lane id=":2/2_1_0" index="0" speed="13.90" length="9.50" shape="398.35,404.75 398.35,395.25"/>
    </edge>
    <edge id=":2/2_2" function="internal">
        <lane id=":2/2_2_0" index="0" speed="13.90" length="3.18" shape="398.35,404.75 398.75,401.95 398.93,401.65"/>
    </edge>
    <edge id=":2/2_12" function="internal">
        <lane id=":2/2_12_0" index="0" speed="13.90" length="7.14" shape="398.93,401.65 399.95,399.95 401.95,398.75 404.75,398.35"/>
    </edge>
    <edge id=":2/2_3" function="internal">
        <lane id=":2/2_3_0" index="0" speed="13.90" length="5.00" shape="404.75,401.65 403.39,401.84 402.42,402.42 401.84,403.39 401.65,404.75"/>
    </edge>
    <edge id=":2/2_4" function="internal">
        <lane id=":2/2_4_0" index="0" speed="13.90" length="9.50" shape="404.75,401.65 395.25,401.65"/>
    </edge>
    <edge id=":2/2_5" function="internal">
        <lane id=":2/2_5_0" index="0" speed="13.90" length="3.18" shape="404.75,401.65 401.95,401.25 401.65,401.07"/>
    </edge>
    <edge id=":2/2_13" function="internal">
        <lane id=":2/2_13_0" index="0" speed="13.90" length="7.14" shape="401.65,401.07 399.95,400.05 398.75,398.05 398.35,395.25"/>
    </edge>
    <edge id=":2/2_6" function="internal">
        <lane id=":2/2_6_0" index="0" speed="13.90" length="5.00" shape="401.65,395.25 401.84,396.61 402.42,397.58 403.39,398.16 404.75,398.35"/>
    </edge>
    <edge id=":2/2_7" function="internal">
        <lane id=":2/2_7_0" index="0" speed="13.90" length="9.50" shape="401.65,395.25 401.65,404.75"/>
    </edge>
    <edge id=":2/2_8" function="internal">
        <lane id=":2/2_8_0" index="0" speed="13.90" length="3.18" shape="401.65,395.25 401.25,398.05 401.07,398.35"/>
    </edge>
    <edge id=":2/2_14" function="internal">
        <lane id=":2/2_14_0" index="0" speed="13.90" length="7.14" shape="401.07,398.35 400.05,400.05 398.05,401.25 395.25,401.65"/>
    </edge>
    <edge id=":2/2_9" function="internal">
        <lane id=":2/2_9_0" index="0" speed="13.90" length="5.00" shape="395.25,398.35 396.61,398.16 397.58,397.58 398.16,396.61 398.35,395.25"/>
    </edge>
    <edge id=":2/2_10" function="internal">
        <lane id=":2/2_10_0" index="0" speed="13.90" length="9.50" shape="395.25,398.35 404.75,398.35"/>
    </edge>
    <edge id=":2/2_11" function="internal">
        <lane id=":2/2_11_0" index="0" speed="13.90" length="3.18" shape="395.25,398.35 398.05,398.75 398.35,398.93"/>
    </edge>
    <edge id=":2/2_15" function="internal">
        <lane id=":2/2_15_0" index="0" speed="13.90" length="7.14" shape="398.35,398.93 400.05,399.95 401.25,401.95 401.65,404.75"/>
    </edge>
    <edge id=":2/3_0" function="internal">
        <lane id=":2/3_0_0" index="0" speed="13.90" length="9.50" shape="404.75,601.65 395.25,601.65"/>
    </edge>
    <edge id=":2/3_1" function="internal">
        <lane id=":2/3_1_0" index="0" speed="13.90" length="7.14" shape="404.75,601.65 401.95,601.25 399.95,600.05 398.93,598.35"/>
    </edge>
    <edge id=":2/3_6" function="internal">
        <lane id=":2/3_6_0" index="0" speed="13.90" length="3.18" shape="398.93,598.35 398.75,598.05 398.35,595.25"/>
    </edge>
    <edge id=":2/3_2" function="internal">
        <lane id=":2/3_2_0" index="0" speed="13.90" length="5.00" shape="401.65,595.25 401.84,596.61 402.42,597.58 403.39,598.16 404.75,598.35"/>
    </edge>
    <edge id=":2/3_3" function="internal">
        <lane id=":2/3_3_0" index="0" speed="13.90" length="3.18" shape="401.65,595.25 401.25,598.05 401.07,598.35"/>
    </edge>
    <edge id=":2/3_7" function="internal">
        <lane id=":2/3_7_0" index="0" speed="13.90" length="7.14" shape="401.07,598.35 400.05,600.05 398.05,601.25 395.25,601.65"/>
    </edge>
    <edge id=":2/3_4" function="internal">
        <lane id=":2/3_4_0" index="0" speed="13.90" length="5.00" shape="395.25,598.35 396.61,598.16 397.58,597.58 398.16,596.61 398.35,595.25"/>
    </edge>
    <edge id=":2/3_5" function="internal">
        <lane id=":2/3_5_0" index="0" speed="13.90" length="9.50" shape="395.25,598.35 404.75,598.35"/>
    </edge>
    <edge id=":3/0_0" function="internal">
        <lane id=":3/0_0_0" index="0" speed="13.90" length="2.58" shape="598.35,3.25 598.25,2.55 597.95,2.05 597.45,1.75 596.75,1.65"/>
    </edge>
    <edge id=":3/0_1" function="internal">
        <lane id=":3/0_1_0" index="0" speed="13.90" length="7.90" shape="596.75,-1.65 598.89,-1.34 600.42,-0.42 601.34,1.11 601.65,3.25"/>
    </edge>
    <edge id=":3/1_0" function="internal">
        <lane id=":3/1_0_0" index="0" speed="13.90" length="5.00" shape="598.35,204.75 598.16,203.39 597.58,202.42 596.61,201.84 595.25,201.65"/>
    </edge>
    <edge id=":3/1_1" function="internal">
        <lane id=":3/1_1_0" index="0" speed="13.90" length="9.50" shape="598.35,204.75 598.35,195.25"/>
    </edge>
    <edge id=":3/1_2" function="internal">
        <lane id=":3/1_2_0" index="0" speed="13.90" length="9.50" shape="601.65,195.25 601.65,204.75"/>
    </edge>
    <edge id=":3/1_3" function="internal">
        <lane id=":3/1_3_0" index="0" speed="13.90" length="7.14" shape="601.65,195.25 601.25,198.05 600.05,200.05 598.35,201.07"/>
    </edge>
    <edge id=":3/1_6" function="internal">
        <lane id=":3/1_6_0" index="0" speed="13.90" length="3.18" shape="598.35,201.07 598.05,201.25 595.25,201.65"/>
    </edge>
    <edge id=":3/1_4" function="internal">
        <lane id=":3/1_4_0" index="0" speed="13.90" length="5.00" shape="595.25,198.35 596.61,198.16 597.58,197.57 598.16,196.61 598.35,195.25"/>
    </edge>
    <edge id=":3/1_5" function="internal">
        <lane id=":3/1_5_0" index="0" speed="13.90" length="3.18" shape="595.25,198.35 598.05,198.75 598.35,198.93"/>
    </edge>
    <edge id=":3/1_7" function="internal">
        <lane id=":3/1_7_0" index="0" speed="13.90" length="7.14" shape="598.35,198.93 600.05,199.95 601.25,201.95 601.65,204.75"/>
    </edge>
    <edge id=":3/2_0" function="internal">
        <lane id=":3/2_0_0" index="0" speed="13.90" length="5.00" shape="598.35,404.75 598.16,403.39 597.58,402.42 596.61,401.84 595.25,401.65"/>
    </edge>
    <edge id=":3/2_1" function="internal">
        <lane id=":3/2_1_0" index="0" speed="13.90" length="9.50" shape="598.35,404.75 598.35,395.25"/>
    </edge>
    <edge id=":3/2_2" function="internal">
        <lane id=":3/2_2_0" index="0" speed="13.90" length="9.50" shape="601.65,395.25 601.65,404.75"/>
    </edge>
    <edge id=":3/2_3" function="internal">
        <lane id=":3/2_3_0" index="0" speed="13.90" length="7.14" shape="601.65,395.25 601.25,398.05 600.05,400.05 598.35,401.07"/>
    </edge>
    <edge id=":3/2_6" function="internal">
        <lane id=":3/2_6_0" index="0" speed="13.90" length="3.18" shape="598.35,401.07 598.05,401.25 595.25,401.65"/>
    </edge>
    <edge id=":3/2_4" function="internal">
        <lane id=":3/2_4_0" index="0" speed="13.90" length="5.00" shape="595.25,398.35 596.61,398.16 597.58,397.58 598.16,396.61 598.35,395.25"/>
    </edge>
    <edge id=":3/2_5" function="internal">
        <lane id=":3/2_5_0" index="0" speed="13.90" length="3.18" shape="595.25,398.35 598.05,398.75 598.35,398.93"/>
    </edge>
    <edge id=":3/2_7" function="internal">
        <lane id=":3/2_7_0" index="0" speed="13.90" length="7.14" shape="598.35,398.93 600.05,399.95 601.25,401.95 601.65,404.75"/>
    </edge>
    <edge id=":3/3_0" function="internal">
        <lane id=":3/3_0_0" index="0" speed="13.90" length="7.90" shape="601.65,596.75 601.34,598.89 600.42,600.42 598.89,601.34 596.75,601.65"/>
    </edge>
    <edge id=":3/3_1" function="internal">
        <lane id=":3/3_1_0" index="0" speed="13.90" length="2.58" shape="596.75,598.35 597.45,598.25 597.95,597.95 598.25,597.45 598.35,596.75"/>
    </edge>

    <edge id="0/0to0/1" from="0/0" to="0/1" priority="-1">
        <lane id="0/0to0/1_0" index="0" speed="13.90" length="192.00" shape="1.65,3.25 1.65,195.25"/>
    </edge>
    <edge id="0/0to1/0" from="0/0" to="1/0" priority="-1">
        <lane id="0/0to1/0_0" index="0" speed="13.90" length="192.00" shape="3.25,-1.65 195.25,-1.65"/>
    </edge>
    <edge id="0/1to0/0" from="0/1" to="0/0" priority="-1">
        <lane id="0/1to0/0_0" index="0" speed="13.90" length="192.00" shape="-1.65,195.25 -1.65,3.25"/>
    </edge>
    <edge id="0/1to0/2" from="0/1" to="0/2" priority="-1">
        <lane id="0/1to0/2_0" index="0" speed="13.90" length="190.50" shape="1.65,204.75 1.65,395.25"/>
    </edge>
    <edge id="0/1to1/1" from="0/1" to="1/1" priority="-1">
        <lane id="0/1to1/1_0" index="0" speed="13.90" length="190.50" shape="4.75,198.35 195.25,198.35"/>
    </edge>
    <edge id="0/2to0/1" from="0/2" to="0/1" priority="-1">
        <lane id="0/2to0/1_0" index="0" speed="13.90" length="190.50" shape="-1.65,395.25 -1.65,204.75"/>
    </edge>
    <edge id="0/2to0/3" from="0/2" to="0/3" priority="-1">
        <lane id="0/2to0/3_0" index="0" speed="13.90" length="192.00" shape="1.65,404.75 1.65,596.75"/>
    </edge>
    <edge id="0/2to1/2" from="0/2" to="1/2" priority="-1">
        <lane id="0/2to1/2_0" index="0" speed="13.90" length="190.50" shape="4.75,398.35 195.25,398.35"/>
    </edge>
    <edge id="0/3to0/2" from="0/3" to="0/2" priority="-1">
        <lane id="0/3to0/2_0" index="0" speed="13.90" length="192.00" shape="-1.65,596.75 -1.65,404.75"/>
    </edge>
    <edge id="0/3to1/3" from="0/3" to="1/3" priority="-1">
        <lane id="0/3to1/3_0" index="0" speed="13.90" length="192.00" shape="3.25,598.35 195.25,598.35"/>
    </edge>
    <edge id="1/0to0/0" from="1/0" to="0/0" priority="-1">
        <lane id="1/0to0/0_0" index="0" speed="13.90" length="192.00" shape="195.25,1.65 3.25,1.65"/>
    </edge>
    <edge id="1/0to1/1" from="1/0" to="1/1" priority="-1">
        <lane id="1/0to1/1_0" index="0" speed="13.90" length="190.50" shape="201.65,4.75 201.65,195.25"/>
    </edge>
    <edge id="1/0to2/0" from="1/0" to="2/0" priority="-1">
        <lane id="1/0to2/0_0" index="0" speed="13.90" length="190.50" shape="204.75,-1.65 395.25,-1.65"/>
    </edge>
    <edge id="1/1to0/1" from="1/1" to="0/1" priority="-1">
        <lane id="1/1to0/1_0" index="0" speed="13.90" length="190.50" shape="195.25,201.65 4.75,201.65"/>
    </edge>
    <edge id="1/1to1/0" from="1/1" to="1/0" priority="-1">
        <lane id="1/1to1/0_0" index="0" speed="13.90" length="190.50" shape="198.35,195.25 198.35,4.75"/>
    </edge>
    <edge id="1/1to1/2" from="1/1" to="1/2" priority="-1">
        <lane id="1/1to1/2_0" index="0" speed="13.90" length="190.50" shape="201.65,204.75 201.65,395.25"/>
    </edge>
    <edge id="1/1to2/1" from="1/1" to="2/1" priority="-1">
        <lane id="1/1to2/1_0" index="0" speed="13.90" length="190.50" shape="204.75,198.35 395.25,198.35"/>
    </edge>
    <edge id="1/2to0/2" from="1/2" to="0/2" priority="-1">
        <lane id="1/2to0/2_0" index="0" speed="13.90" length="190.50" shape="195.25,401.65 4.75,401.65"/>
    </edge>
    <edge id="1/2to1/1" from="1/2" to="1/1" priority="-1">
        <lane id="1/2to1/1_0" index="0" speed="13.90" length="190.50" shape="198.35,395.25 198.35,204.75"/>
    </edge>
    <edge id="1/2to1/3" from="1/2" to="1/3" priority="-1">
        <lane id="1/2to1/3_0" index="0" speed="13.90" length="190.50" shape="201.65,404.75 201.65,595.25"/>
    </edge>
    <edge id="1/2to2/2" from="1/2" to="2/2" priority="-1">
        <lane id="1/2to2/2_0" index="0" speed="13.90" length="190.50" shape="204.75,398.35 395.25,398.35"/>
    </edge>
    <edge id="1/3to0/3" from="1/3" to="0/3" priority="-1">
        <lane id="1/3to0/3_0" index="0" speed="13.90" length="192.00" shape="195.25,601.65 3.25,601.65"/>
    </edge>
    <edge id="1/3to1/2" from="1/3" to="1/2" priority="-1">
        <lane id="1/3to1/2_0" index="0" speed="13.90" length="190.50" shape="198.35,595.25 198.35,404.75"/>
    </edge>
    <edge id="1/3to2/3" from="1/3" to="2/3" priority="-1">
        <lane id="1/3to2/3_0" index="0" speed="13.90" length="190.50" shape="204.75,598.35 395.25,598.35"/>
    </edge>
    <edge id="2/0to1/0" from="2/0" to="1/0" priority="-1">
        <lane id="2/0to1/0_0" index="0" speed="13.90" length="190.50" shape="395.25,1.65 204.75,1.65"/>
    </edge>