<?utils.xml version="1.0" encoding="UTF-8" standalone="no"?><routes xmlns:xsi="http://www.w3.org/2001/XMLSchema-instance" xsi:noNamespaceSchemaLocation="http://sumo-sim.org/xsd/routes_file.xsd"><vType accel="1.8" color="red" decel="4.5" id="eme" length="5" maxSpeed="140" sigma="0.5" vClass="emergency"/><vType accel="0.4" color="blue" decel="8.5" id="bus" length="10" maxSpeed="40" sigma="0.5" vClass="bus"/><vType accel="2.0" decel="4.5" id="nor" length="5" maxSpeed="120" sigma="0.5"/><vehicle depart="1.00" id="0" type="nor">
        <route edges="2/1to2/2 2/2to1/2 1/2to0/2 0/2to0/3"/>
    </vehicle><vehicle depart="5.00" id="1" type="nor">
        <route edges="1/1to0/1 0/1to0/2 0/2to1/2"/>
    </vehicle><vehicle depart="9.00" id="2" type="bus">
        <route edges="2/1to2/2 2/2to1/2 1/2to1/3 1/3to0/3"/>
    </vehicle><vehicle depart="13.00" id="3" type="nor">
        <route edges="0/0to1/0 1/0to1/1 1/1to1/2 1/2to2/2 2/2to2/3 2/3to1/3 1/3to1/2"/>
    </vehicle><vehicle depart="17.00" id="4" type="nor">
        <route edges="2/0to3/0 3/0to3/1 3/1to3/2 3/2to3/3 3/3to2/3 2/3to2/2"/>
    </vehicle><vehicle depart="21.00" id="5" type="nor">
        <route edges="0/1to1/1 1/1to1/2 1/2to2/2 2/2to3/2"/>
    </vehicle><vehicle depart="25.00" id="6" type="nor">
        <route edges="2/2to2/3 2/3to3/3 3/3to3/2 3/2to2/2"/>
    </vehicle><vehicle depart="29.00" id="7" type="nor">
        <route edges="3/3to2/3 2/3to1/3"/>
    </vehicle><vehicle depart="33.00" id="8" type="nor">
        <route edges="0/2to0/3 0/3to1/3 1/3to1/2 1/2to2/2 2/2to2/3"/>
    </vehicle><vehicle depart="37.00" id="9" type="nor">
        <route edges="2/2to3/2 3/2to3/1 3/1to2/1 2/1to2/0 2/0to1/0"/>
    </vehicle><vehicle depart="41.00" id="10" type="nor">
        <route edges="1/1to2/1 2/1to2/2 2/2to3/2 3/2to3/3"/>
    </vehicle><vehicle depart="45.00" id="11" type="nor">
        <route edges="2/2to2/1 2/1to1/1 1/1to1/0 1/0to0/0"/>
    </vehicle><vehicle depart="49.00" id="12" type="nor">
        <route edges="3/1to3/2 3/2to3/3 3/3to2/3 2/3to2/2"/>
    </vehicle><vehicle depart="53.00" id="13" type="nor">
        <route edges="2/2to2/1 2/1to1/1 1/1to1/2 1/2to1/3"/>
    </vehicle><vehicle depart="57.00" id="14" type="nor">
        <route edges="2/2to2/3 2/3to3/3 3/3to3/2 3/2to2/2"/>
    </vehicle><vehicle depart="61.00" id="15" type="nor">
        <route edges="3/0to2/0 2/0to1/0 1/0to0/0 0/0to0/1"/>
    </vehicle><vehicle depart="65.00" id="16" type="nor">
        <route edges="1/0to0/0 0/0to0/1 0/1to0/2 0/2to0/3 0/3to1/3 1/3to1/2"/>
    </vehicle><vehicle depart="69.00" id="17" type="nor">
        <route edges="0/2to0/3 0/3to1/3 1/3to1/2 1/2to2/2 2/2to3/2"/>
    </vehicle><vehicle depart="73.00" id="18" type="nor">
        <route edges="1/2to2/2 2/2to2/1 2/1to1/1 1/1to0/1"/>
    </vehicle><vehicle depart="77.00" id="19" type="nor">
        <route edges="3/0to3/1 3/1to2/1 2/1to1/1"/>
    </vehicle><vehicle depart="81.00" id="20" type="nor">
        <route edges="1/2to1/3 1/3to2/3 2/3to2/2 2/2to2/1 2/1to2/0"/>
    </vehicle><vehicle depart="85.00" id="21" type="nor">
        <route edges="2/0to1/0 1/0to0/0"/>
    </vehicle><vehicle depart="89.00" id="22" type="nor">
        <route edges="1/0to1/1 1/1to1/2 1/2to1/3 1/3to2/3 2/3to3/3"/>
    </vehicle><vehicle depart="93.00" id="23" type="bus">
        <route edges="2/2to1/2 1/2to1/3"/>
    </vehicle><vehicle depart="97.00" id="24" type="nor">
        <route edges="2/0to2/1 2/1to2/2 2/2to2/3 2/3to3/3 3/3to3/2"/>
    </vehicle><vehicle depart="101.00" id="25" type="nor">
        <route edges="1/1to2/1 2/1to2/0 2/0to1/0 1/0to1/1 1/1to0/1 0/1to0/2"/>
    </vehicle><vehicle depart="105.00" id="26" type="nor">
        <route edges="2/0to3/0 3/0to3/1 3/1to2/1 2/1to2/0 2/0to1/0 1/0to1/1 1/1to2/1"/>
    </vehicle><vehicle depart="109.00" id="27" type="nor">
        <route edges="2/0to1/0"/>
    </vehicle><vehicle depart="113.00" id="28" type="nor">
        <route edges="2/2to2/1 2/1to1/1 1/1to1/2 1/2to1/3 1/3to2/3 2/3to2/2"/>
    </vehicle><vehicle depart="117.00" id="29" type="nor">
        <route edges="2/2to3/2 3/2to3/1 3/1to2/1 2/1to1/1 1/1to1/2 1/2to0/2"/>
    </vehicle><vehicle depart="121.00" id="30" type="nor">
        <route edges="1/2to1/3 1/3to0/3 0/3to0/2 0/2to0/1 0/1to1/1"/>
    </vehicle><vehicle depart="125.00" id="31" type="nor">
        <route edges="0/1to1/1 1/1to1/0 1/0to0/0 0/0to0/1 0/1to0/2"/>
    </vehicle><vehicle depart="129.00" id="32" type="nor">
        <route edges="0/2to0/3 0/3to1/3 1/3to1/2 1/2to2/2 2/2to3/2"/>
    </vehicle><vehicle depart="133.00" id="33" type="nor">
        <route edges="3/2to3/3 3/3to2/3 2/3to2/2 2/2to2/1 2/1to3/1"/>
    </vehicle><vehicle depart="137.00" id="34" type="nor">
        <route edges="1/3to0/3 0/3to0/2 0/2to0/1 0/1to1/1 1/1to1/0 1/0to2/0 2/0to3/0"/>
    </vehicle><vehicle depart="141.00" id="35" type="nor">
        <route edges="3/3to2/3 2/3to2/2 2/2to3/2"/>
    </vehicle><vehicle depart="145.00" id="36" type="nor">
        <route edges="2/2to3/2 3/2to3/1 3/1to3/0 3/0to2/0"/>
    </vehicle><vehicle depart="149.00" id="37" type="nor">
        <route edges="1/1to2/1 2/1to2/2 2/2to1/2 1/2to1/3 1/3to0/3"/>
    </vehicle><vehicle depart="153.00" id="38" type="bus">
        <route edges="1/0to0/0 0/0to0/1 0/1to1/1 1/1to2/1 2/1to3/1 3/1to3/0"/>
    </vehicle><vehicle depart="157.00" id="39" type="nor">
        <route edges="1/1to2/1 2/1to2/0 2/0to1/0 1/0to1/1 1/1to0/1 0/1to0/2"/>
    </vehicle><vehicle depart="161.00" id="40" type="nor">
        <route edges="1/2to1/3 1/3to2/3 2/3to2/2 2/2to1/2 1/2to1/1"/>
    </vehicle><vehicle depart="165.00" id="41" type="nor">
        <route edges="2/3to2/2 2/2to2/1 2/1to1/1 1/1to1/2"/>
    </vehicle><vehicle depart="169.00" id="42" type="nor">
        <route edges="2/3to3/3 3/3to3/2 3/2to3/1 3/1to3/0 3/0to2/0 2/0to2/1"/>
    </vehicle><vehicle depart="173.00" id="43" type="nor">
        <route edges="1/2to0/2 0/2to0/1 0/1to1/1 1/1to2/1 2/1to3/1 3/1to3/2 3/2to2/2"/>
    </vehicle><vehicle depart="177.00" id="44" type="nor">
        <route edges="1/0to1/1 1/1to2/1 2/1to2/2"/>
    </vehicle><vehicle depart="181.00" id="45" type="nor">
        <route edges="1/2to1/1 1/1to1/0 1/0to2/0 2/0to3/0 3/0to3/1"/>
    </vehicle><vehicle depart="185.00" id="46" type="nor">
        <route edges="2/0to2/1 2/1to1/1 1/1to1/0 1/0to0/0 0/0to0/1"/>
    </vehicle><vehicle depart="189.00" id="47" type="nor">
        <route edges="3/2to3/3 3/3to2/3 2/3to1/3 1/3to1/2 1/2to0/2 0/2to0/1 0/1to1/1"/>
    </vehicle><vehicle depart="193.00" id="48" type="nor">
        <route edges="2/0to1/0 1/0to1/1 1/1to0/1"/>
    </vehicle><vehicle depart="197.00" id="49" type="nor">
        <route edges="0/1to0/2 0/2to1/2 1/2to1/1 1/1to2/1 2/1to2/2"/>
    </vehicle><vehicle depart="201.00" id="50" type="nor">
        <route edges="1/0to0/0 0/0to0/1 0/1to1/1 1/1to1/0 1/0to2/0 2/0to2/1 2/1to1/1"/>
    </vehicle><vehicle depart="205.00" id="51" type="nor">
        <route edges="1/0to1/1 1/1to2/1 2/1to2/0"/>
    </vehicle><vehicle depart="209.00" id="52" type="nor">
        <route edges="2/0to1/0 1/0to1/1 1/1to0/1 0/1to0/0"/>
    </vehicle><vehicle depart="213.00" id="53" type="eme">
        <route edges="1/0to0/0 0/0to0/1 0/1to0/2 0/2to1/2 1/2to2/2 2/2to3/2 3/2to3/1"/>
    </vehicle><vehicle depart="217.00" id="54" type="nor">
        <route edges="3/1to3/2 3/2to2/2 2/2to1/2"/>
    </vehicle><vehicle depart="221.00" id="55" type="eme">
        <route edges="2/1to2/0 2/0to1/0 1/0to1/1 1/1to1/2 1/2to2/2 2/2to2/3 2/3to1/3"/>
    </vehicle><vehicle depart="225.00" id="56" type="nor">
        <route edges="0/3to1/3 1/3to2/3 2/3to2/2 2/2to1/2 1/2to1/3 1/3to0/3"/>
    </vehicle><vehicle depart="229.00" id="57" type="nor">
        <route edges="2/0to3/0 3/0to3/1 3/1to2/1 2/1to1/1 1/1to1/2 1/2to0/2"/>
    </vehicle><vehicle depart="233.00" id="58" type="nor">
        <route edges="3/1to3/2 3/2to2/2 2/2to1/2 1/2to1/1 1/1to1/0"/>
    </vehicle><vehicle depart="237.00" id="59" type="nor">
        <route edges="2/3to3/3 3/3to3/2 3/2to3/1 3/1to2/1 2/1to2/2 2/2to3/2 3/2to3/3 3/3to2/3"/>
    </vehicle><vehicle depart="241.00" id="60" type="nor">
        <route edges="2/1to1/1 1/1to1/0 1/0to2/0 2/0to2/1 2/1to3/1 3/1to3/0 3/0to2/0"/>
    </vehicle><vehicle depart="245.00" id="61" type="nor">
        <route edges="3/1to3/0 3/0to2/0 2/0to1/0 1/0to1/1 1/1to0/1 0/1to0/2 0/2to1/2"/>
    </vehicle><vehicle depart="249.00" id="62" type="nor">
        <route edges="0/0to1/0 1/0to1/1 1/1to1/2"/>
    </vehicle><vehicle depart="253.00" id="63" type="nor">
        <route edges="1/3to0/3 0/3to0/2 0/2to1/2 1/2to2/2 2/2to3/2 3/2to3/3"/>
    </vehicle><vehicle depart="257.00" id="64" type="nor">
        <route edges="0/2to0/1 0/1to1/1 1/1to2/1 2/1to2/2 2/2to1/2"/>
    </vehicle><vehicle depart="261.00" id="65" type="nor">
        <route edges="0/1to0/2 0/2to1/2"/>
    </vehicle><vehicle depart="265.00" id="66" type="bus">
        <route edges="3/3to3/2 3/2to2/2 2/2to1/2 1/2to1/1 1/1to1/0"/>
    </vehicle><vehicle depart="269.00" id="67" type="nor">
        <route edges="3/1to2/1 2/1to1/1 1/1to1/2 1/2to1/3 1/3to0/3 0/3to0/2"/>
    </vehicle><vehicle depart="273.00" id="68" type="nor">
        <route edges="2/1to2/2 2/2to2/3 2/3to3/3"/>
    </vehicle><vehicle depart="277.00" id="69" type="nor">
        <route edges="0/1to1/1 1/1to1/0 1/0to2/0 2/0to3/0 3/0to3/1"/>
    </vehicle><vehicle depart="281.00" id="70" type="eme">
        <route edges="0/3to1/3 1/3to1/2 1/2to2/2 2/2to2/3"/>
    </vehicle><vehicle depart="285.00" id="71" type="nor">
        <route edges="2/2to2/3 2/3to1/3 1/3to1/2 1/2to0/2 0/2to0/3 0/3to1/3 1/3to2/3"/>
    </vehicle><vehicle depart="289.00" id="72" type="nor">
        <route edges="2/1to2/2 2/2to3/2"/>
    </vehicle><vehicle depart="293.00" id="73" type="nor">
        <route edges="0/2to0/3 0/3to1/3 1/3to1/2 1/2to1/1 1/1to2/1"/>
    </vehicle><vehicle depart="297.00" id="74" type="nor">
        <route edges="0/1to1/1 1/1to1/0 1/0to2/0 2/0to3/0 3/0to3/1"/>
    </vehicle><vehicle depart="301.00" id="75" type="bus">
        <route edges="1/2to1/3 1/3to2/3 2/3to2/2 2/2to3/2 3/2to3/3 3/3to2/3 2/3to1/3"/>
    </vehicle><vehicle depart="305.00" id="76" type="nor">
        <route edges="0/2to0/3 0/3to1/3"/>
    </vehicle><vehicle depart="309.00" id="77" type="nor">
        <route edges="2/2to3/2 3/2to3/3 3/3to2/3"/>
    </vehicle><vehicle depart="313.00" id="78" type="nor">
        <route edges="1/2to2/2 2/2to2/1 2/1to3/1 3/1to3/0 3/0to2/0"/>
    </vehicle><vehicle depart="317.00" id="79" type="nor">
        <route edges="3/0to3/1 3/1to2/1 2/1to1/1 1/1to1/2 1/2to0/2 0/2to0/1"/>
    </vehicle><vehicle depart="321.00" id="80" type="nor">
        <route edges="0/1to1/1 1/1to1/0 1/0to2/0 2/0to3/0 3/0to3/1"/>
    </vehicle><vehicle depart="325.00" id="81" type="nor">
        <route edges="0/3to1/3 1/3to1/2 1/2to1/1 1/1to1/0 1/0to0/0"/>
    </vehicle><vehicle depart="329.00" id="82" type="nor">
        <route edges="2/2to2/1 2/1to1/1 1/1to1/2 1/2to0/2 0/2to0/1"/>
    </vehicle><vehicle depart="333.00" id="83" type="nor">
        <route edges="2/3to1/3 1/3to1/2 1/2to0/2 0/2to0/1"/>
    </vehicle><vehicle depart="337.00" id="84" type="nor">
        <route edges="0/0to1/0 1/0to1/1 1/1to1/2"/>
    </vehicle><vehicle depart="341.00" id="85" type="nor">
        <route edges="2/0to3/0 3/0to3/1 3/1to3/2 3/2to3/3 3/3to2/3 2/3to2/2"/>
    </vehicle><vehicle depart="345.00" id="86" type="nor">
        <route edges="0/0to0/1 0/1to1/1 1/1to2/1 2/1to2/0"/>
    </vehicle><vehicle depart="349.00" id="87" type="nor">
        <route edges="3/2to2/2 2/2to1/2 1/2to1/3 1/3to2/3 2/3to2/2"/>
    </vehicle><vehicle depart="353.00" id="88" type="nor">
        <route edges="3/2to3/1 3/1to2/1 2/1to1/1 1/1to1/2 1/2to2/2 2/2to2/1"/>
    </vehicle><vehicle depart="357.00" id="89" type="nor">
        <route edges="2/1to2/0 2/0to1/0 1/0to1/1 1/1to1/2 1/2to0/2"/>
    </vehicle><vehicle depart="361.00" id="90" type="nor">
        <route edges="3/1to3/2 3/2to3/3 3/3to2/3 2/3to2/2"/>
    </vehicle><vehicle depart="365.00" id="91" type="nor">
        <route edges="2/1to2/0 2/0to3/0 3/0to3/1 3/1to3/2 3/2to2/2"/>
    </vehicle><vehicle depart="369.00" id="92" type="nor">
        <route edges="0/1to1/1 1/1to2/1 2/1to2/2"/>
    </vehicle><vehicle depart="373.00" id="93" type="nor">
        <route edges="3/1to3/2 3/2to2/2 2/2to2/3 2/3to1/3"/>
    </vehicle><vehicle depart="377.00" id="94" type="nor">
        <route edges="1/2to0/2 0/2to0/1 0/1to1/1 1/1to1/2 1/2to1/3 1/3to0/3"/>
    </vehicle><vehicle depart="381.00" id="95" type="nor">
        <route edges="2/0to2/1 2/1to2/2 2/2to1/2 1/2to1/1 1/1to2/1 2/1to2/0"/>
    </vehicle><vehicle depart="385.00" id="96" type="nor">
        <route edges="1/0to1/1"/>
    </vehicle><vehicle depart="389.00" id="97" type="nor">
        <route edges="1/3to2/3 2/3to2/2 2/2to2/1 2/1to1/1 1/1to1/2 1/2to2/2"/>
    </vehicle><vehicle depart="393.00" id="98" type="nor">
        <route edges="1/2to0/2 0/2to0/1 0/1to1/1 1/1to2/1 2/1to3/1"/>
    </vehicle><vehicle depart="397.00" id="99" type="nor">
        <route edges="0/3to0/2 0/2to1/2 1/2to1/3 1/3to2/3 2/3to3/3"/>
    </vehicle><vehicle depart="401.00" id="100" type="nor">
        <route edges="2/3to2/2 2/2to1/2 1/2to1/1 1/1to1/0 1/0to2/0 2/0to2/1"/>
    </vehicle><vehicle depart="405.00" id="101" type="nor">
        <route edges="1/2to0/2 0/2to0/1 0/1to1/1 1/1to2/1 2/1to2/0 2/0to1/0"/>
    </vehicle><vehicle depart="409.00" id="102" type="bus">
        <route edges="2/2to2/1 2/1to1/1 1/1to1/2 1/2to1/3 1/3to2/3 2/3to3/3"/>
    </vehicle><vehicle depart="413.00" id="103" type="nor">
        <route edges="2/0to1/0 1/0to1/1 1/1to1/2 1/2to1/3 1/3to2/3 2/3to3/3"/>
    </vehicle><vehicle depart="417.00" id="104" type="nor">
        <route edges="2/0to2/1 2/1to1/1 1/1to0/1 0/1to0/0"/>
    </vehicle><vehicle depart="421.00" id="105" type="nor">
        <route edges="2/2to2/1 2/1to2/0 2/0to1/0 1/0to1/1 1/1to2/1"/>
    </vehicle><vehicle depart="425.00" id="106" type="nor">
        <route edges="2/0to2/1 2/1to2/2 2/2to3/2 3/2to3/3"/>
    </vehicle><vehicle depart="429.00" id="107" type="nor">
        <route edges="0/2to0/1 0/1to1/1 1/1to1/2 1/2to1/3 1/3to0/3 0/3to0/2"/>
    </vehicle><vehicle depart="433.00" id="108" type="nor">
        <route edges="2/1to2/0 2/0to1/0"/>
    </vehicle><vehicle depart="437.00" id="109" type="nor">
        <route edges="2/0to2/1 2/1to2/2 2/2to2/3 2/3to3/3"/>
    </vehicle><vehicle depart="441.00" id="110" type="nor">
        <route edges="2/3to1/3 1/3to1/2 1/2to1/1 1/1to0/1"/>
    </vehicle><vehicle depart="445.00" id="111" type="nor">
        <route edges="0/2to1/2 1/2to1/3"/>
    </vehicle><vehicle depart="449.00" id="112" type="nor">
        <route edges="1/1to1/0 1/0to2/0 2/0to2/1 2/1to1/1 1/1to1/2 1/2to1/3"/>
    </vehicle><vehicle depart="453.00" id="113" type="nor">
        <route edges="3/2to3/1 3/1to2/1 2/1to1/1 1/1to1/2 1/2to1/3 1/3to2/3 2/3to2/2"/>
    </vehicle><vehicle depart="457.00" id="114" type="nor">
        <route edges="2/0to1/0 1/0to1/1 1/1to0/1 0/1to0/2 0/2to0/3 0/3to1/3"/>
    </vehicle><vehicle depart="461.00" id="115" type="nor">
        <route edges="1/0to2/0 2/0to2/1 2/1to2/2 2/2to3/2 3/2to3/1"/>
    </vehicle><vehicle depart="465.00" id="116" type="nor">
        <route edges="1/2to1/1 1/1to0/1 0/1to0/0"/>
    </vehicle><vehicle depart="469.00" id="117" type="nor">
        <route edges="3/1to3/2 3/2to2/2 2/2to1/2 1/2to0/2"/>
    </vehicle><vehicle depart="473.00" id="118" type="nor">
        <route edges="1/3to2/3 2/3to2/2 2/2to1/2 1/2to0/2 0/2to0/1 0/1to0/0 0/0to1/0"/>
    </vehicle><vehicle depart="477.00" id="119" type="nor">
        <route edges="1/0to2/0 2/0to2/1 2/1to1/1 1/1to0/1 0/1to0/0 0/0to1/0 1/0to1/1"/>
    </vehicle><vehicle depart="481.00" id="120" type="bus">
        <route edges="2/3to2/2 2/2to2/1 2/1to2/0"/>
    </vehicle><vehicle depart="485.00" id="121" type="nor">
        <route edges="0/0to0/1 0/1to1/1 1/1to1/0 1/0to2/0 2/0to2/1 2/1to1/1"/>
    </vehicle><vehicle depart="489.00" id="122" type="nor">
        <route edges="3/3to3/2 3/2to2/2 2/2to1/2 1/2to1/1 1/1to1/0 1/0to0/0 0/0to0/1"/>
    </vehicle><vehicle depart="493.00" id="123" type="nor">
        <route edges="1/3to2/3 2/3to2/2 2/2to1/2 1/2to0/2 0/2to0/3 0/3to1/3"/>
    </vehicle><vehicle depart="497.00" id="124" type="nor">
        <route edges="3/2to2/2 2/2to2/1 2/1to3/1 3/1to3/2"/>
    </vehicle><vehicle depart="501.00" id="125" type="nor">
        <route edges="3/2to3/1 3/1to2/1 2/1to1/1 1/1to1/0 1/0to0/0"/>
    </vehicle><vehicle depart="505.00" id="126" type="nor">
        <route edges="2/0to1/0 1/0to1/1 1/1to1/2 1/2to2/2 2/2to2/3"/>
    </vehicle><vehicle depart="509.00" id="127" type="bus">
        <route edges="1/1to1/2 1/2to0/2 0/2to0/1 0/1to1/1 1/1to1/0"/>
    </vehicle><vehicle depart="513.00" id="128" type="nor">
        <route edges="1/1to1/2 1/2to0/2 0/2to0/1 0/1to0/0 0/0to1/0"/>
    </vehicle><vehicle depart="517.00" id="129" type="nor">
        <route edges="2/3to1/3 1/3to1/2 1/2to2/2 2/2to3/2 3/2to3/3"/>
    </vehicle><vehicle depart="521.00" id="130" type="nor">
        <route edges="1/1to2/1 2/1to2/0 2/0to1/0 1/0to0/0"/>
    </vehicle><vehicle depart="525.00" id="131" type="bus">
        <route edges="3/2to2/2 2/2to1/2 1/2to1/3 1/3to2/3 2/3to2/2"/>
    </vehicle><vehicle depart="529.00" id="132" type="nor">
        <route edges="2/0to2/1 2/1to2/2 2/2to2/3 2/3to3/3"/>
    </vehicle><vehicle depart="533.00" id="133" type="nor">
        <route edges="1/0to2/0 2/0to3/0 3/0to3/1 3/1to2/1"/>
    </vehicle><vehicle depart="537.00" id="134" type="nor">
        <route edges="2/2to2/1 2/1to3/1"/>
    </vehicle><vehicle depart="541.00" id="135" type="nor">
        <route edges="0/1to1/1 1/1to2/1 2/1to3/1"/>
    </vehicle><vehicle depart="545.00" id="136" type="nor">
        <route edges="3/0to3/1 3/1to2/1 2/1to2/2 2/2to1/2"/>
    </vehicle><vehicle depart="549.00" id="137" type="nor">
        <route edges="1/3to0/3 0/3to0/2 0/2to0/1 0/1to1/1 1/1to2/1 2/1to3/1 3/1to3/2 3/2to2/2"/>
    </vehicle><vehicle depart="553.00" id="138" type="nor">
        <route edges="3/0to2/0 2/0to2/1 2/1to3/1"/>
    </vehicle><vehicle depart="557.00" id="139" type="nor">
        <route edges="0/0to1/0 1/0to2/0 2/0to2/1 2/1to1/1 1/1to1/0 1/0to0/0"/>
    </vehicle><vehicle depart="561.00" id="140" type="nor">
        <route edges="2/1to1/1 1/1to1/0 1/0to2/0 2/0to2/1 2/1to3/1 3/1to3/0"/>
    </vehicle><vehicle depart="565.00" id="141" type="nor">
        <route edges="2/1to2/0 2/0to1/0 1/0to1/1 1/1to1/2 1/2to2/2 2/2to2/3"/>
    </vehicle><vehicle depart="569.00" id="142" type="nor">
        <route edges="0/1to1/1 1/1to2/1"/>
    </vehicle><vehicle depart="573.00" id="143" type="nor">
        <route edges="0/1to0/0 0/0to1/0 1/0to2/0 2/0to2/1 2/1to1/1 1/1to1/0 1/0to0/0"/>
    </vehicle><vehicle depart="577.00" id="144" type="nor">
        <route edges="2/3to2/2 2/2to1/2 1/2to1/1 1/1to1/0 1/0to0/0"/>
    </vehicle><vehicle depart="581.00" id="145" type="nor">
        <route edges="0/1to0/0 0/0to1/0 1/0to2/0 2/0to2/1"/>
    </vehicle><vehicle depart="585.00" id="146" type="nor">
        <route edges="1/3to1/2 1/2to2/2 2/2to3/2 3/2to3/3"/>
    </vehicle><vehicle depart="589.00" id="147" type="nor">
        <route edges="1/2to1/1 1/1to0/1 0/1to0/2 0/2to1/2 1/2to1/3 1/3to2/3"/>
    </vehicle><vehicle depart="593.00" id="148" type="bus">
        <route edges="3/2to3/3 3/3to2/3 2/3to2/2 2/2to2/1 2/1to3/1 3/1to3/0"/>
    </vehicle><vehicle depart="597.00" id="149" type="nor">
        <route edges="2/1to2/0 2/0to1/0 1/0to1/1 1/1to0/1 0/1to0/2"/>
    </vehicle><vehicle depart="601.00" id="150" type="eme">
        <route edges="1/1to1/2 1/2to2/2 2/2to2/3 2/3to1/3 1/3to1/2 1/2to1/1"/>
    </vehicle><vehicle depart="605.00" id="151" type="nor">
        <route edges="0/1to1/1 1/1to1/2 1/2to2/2"/>
    </vehicle><vehicle depart="609.00" id="152" type="nor">
        <route edges="1/0to2/0 2/0to2/1 2/1to1/1 1/1to1/0 1/0to0/0"/>
    </vehicle><vehicle depart="613.00" id="153" type="nor">
        <route edges="1/3to0/3 0/3to0/2 0/2to1/2 1/2to1/1 1/1to0/1 0/1to0/2"/>
    </vehicle><vehicle depart="617.00" id="154" type="nor">
        <route edges="1/2to1/3 1/3to2/3 2/3to2/2 2/2to2/1 2/1to3/1 3/1to3/2"/>
    </vehicle><vehicle depart="621.00" id="155" type="nor">
        <route edges="2/0to2/1 2/1to2/2 2/2to3/2"/>
    </vehicle><vehicle depart="625.00" id="156" type="nor">
        <route edges="3/0to3/1 3/1to2/1 2/1to1/1 1/1to0/1 0/1to0/2 0/2to1/2"/>
    </vehicle><vehicle depart="629.00" id="157" type="nor">
        <route edges="2/1to1/1 1/1to1/2 1/2to1/3"/>
    </vehicle><vehicle depart="633.00" id="158" type="nor">
        <route edges="1/2to2/2 2/2to2/3 2/3to1/3"/>
    </vehicle><vehicle depart="637.00" id="159" type="nor">
        <route edges="0/1to0/2 0/2to1/2 1/2to1/1 1/1to1/0 1/0to2/0 2/0to2/1"/>
    </vehicle><vehicle depart="641.00" id="160" type="nor">
        <route edges="1/2to1/1 1/1to2/1 2/1to2/2 2/2to2/3 2/3to1/3"/>
    </vehicle><vehicle depart="645.00" id="161" type="nor">
        <route edges="2/3to2/2 2/2to2/1 2/1to1/1 1/1to1/2"/>
    </vehicle><vehicle depart="649.00" id="162" type="nor">
        <route edges="2/0to2/1 2/1to2/2 2/2to1/2 1/2to1/1 1/1to2/1 2/1to2/0"/>
    </vehicle><vehicle depart="653.00" id="163" type="nor">
        <route edges="2/2to2/3 2/3to1/3 1/3to1/2 1/2to0/2 0/2to0/1 0/1to0/0 0/0to1/0"/>
    </vehicle><vehicle depart="657.00" id="164" type="nor">
        <route edges="1/1to0/1 0/1to0/2 0/2to1/2 1/2to1/1 1/1to2/1 2/1to2/2"/>
    </vehicle><vehicle depart="661.00" id="165" type="nor">
        <route edges="1/3to2/3 2/3to2/2 2/2to1/2 1/2to0/2 0/2to0/1"/>
    </vehicle><vehicle depart="665.00" id="166" type="nor">
        <route edges="1/2to2/2 2/2to3/2 3/2to3/3 3/3to2/3"/>
    </vehicle><vehicle depart="669.00" id="167" type="nor">
        <route edges="0/1to1/1 1/1to1/2 1/2to2/2 2/2to3/2 3/2to3/3"/>
    </vehicle><vehicle depart="673.00" id="168" type="nor">
        <route edges="1/3to2/3"/>
    </vehicle><vehicle depart="677.00" id="169" type="nor">
        <route edges="3/0to2/0 2/0to1/0 1/0to1/1 1/1to0/1 0/1to0/2"/>
    </vehicle><vehicle depart="681.00" id="170" type="nor">
        <route edges="2/1to1/1 1/1to1/2 1/2to2/2"/>
    </vehicle><vehicle depart="685.00" id="171" type="nor">
        <route edges="1/1to2/1 2/1to2/2 2/2to2/3 2/3to1/3 1/3to1/2"/>
    </vehicle><vehicle depart="689.00" id="172" type="nor">
        <route edges="2/0to3/0 3/0to3/1 3/1to2/1 2/1to2/0"/>
    </vehicle><vehicle depart="693.00" id="173" type="nor">
        <route edges="0/0to0/1 0/1to1/1 1/1to1/2 1/2to0/2 0/2to0/1 0/1to0/0"/>
    </vehicle><vehicle depart="697.00" id="174" type="eme">
        <route edges="0/1to1/1 1/1to1/2 1/2to2/2 2/2to2/1"/>
    </vehicle><vehicle depart="701.00" id="175" type="nor">
        <route edges="3/1to3/2 3/2to2/2 2/2to2/1 2/1to1/1"/>
    </vehicle><vehicle depart="705.00" id="176" type="nor">
        <route edges="0/0to1/0 1/0to1/1 1/1to2/1 2/1to3/1"/>
    </vehicle><vehicle depart="709.00" id="177" type="nor">
        <route edges="3/0to3/1 3/1to2/1 2/1to1/1 1/1to0/1 0/1to0/2"/>
    </vehicle><vehicle depart="713.00" id="178" type="nor">
        <route edges="2/2to2/1 2/1to1/1 1/1to1/2"/>
    </vehicle><vehicle depart="717.00" id="179" type="nor">
        <route edges="2/3to2/2 2/2to1/2 1/2to0/2 0/2to0/1 0/1to0/0 0/0to1/0"/>
    </vehicle><vehicle depart="721.00" id="180" type="nor">
        <route edges="0/1to0/0 0/0to1/0 1/0to1/1 1/1to1/2 1/2to2/2 2/2to3/2 3/2to3/3 3/3to2/3"/>
    </vehicle><vehicle depart="725.00" id="181" type="nor">
        <route edges="2/3to3/3 3/3to3/2 3/2to2/2 2/2to1/2 1/2to1/1 1/1to0/1 0/1to0/2"/>
    </vehicle><vehicle depart="729.00" id="182" type="nor">
        <route edges="1/0to1/1 1/1to1/2 1/2to2/2 2/2to3/2 3/2to3/1"/>
    </vehicle><vehicle depart="733.00" id="183" type="nor">
        <route edges="2/2to2/3 2/3to3/3 3/3to3/2 3/2to2/2 2/2to1/2"/>
    </vehicle><vehicle depart="737.00" id="184" type="nor">
        <route edges="2/1to2/0 2/0to1/0 1/0to1/1 1/1to0/1 0/1to0/0 0/0to1/0 1/0to2/0"/>
    </vehicle><vehicle depart="741.00" id="185" type="nor">
        <route edges="3/2to3/3 3/3to2/3 2/3to2/2 2/2to1/2 1/2to1/3"/>
    </vehicle><vehicle depart="745.00" id="186" type="nor">
        <route edges="3/2to3/1 3/1to2/1 2/1to2/2 2/2to3/2 3/2to3/3"/>
    </vehicle><vehicle depart="749.00" id="187" type="nor">
        <route edges="3/1to3/2 3/2to2/2 2/2to2/1 2/1to1/1 1/1to1/2 1/2to2/2"/>
    </vehicle><vehicle depart="753.00" id="188" type="nor">
        <route edges="2/2to2/1 2/1to1/1 1/1to1/0 1/0to0/0 0/0to0/1"/>
    </vehicle><vehicle depart="757.00" id="189" type="nor">
        <route edges="0/0to1/0 1/0to1/1 1/1to0/1"/>
    </vehicle><vehicle depart="761.00" id="190" type="bus">
        <route edges="0/1to1/1 1/1to2/1 2/1to3/1"/>
    </vehicle><vehicle depart="765.00" id="191" type="nor">
        <route edges="2/1to2/0 2/0to1/0 1/0to1/1 1/1to1/2 1/2to2/2"/>
    </vehicle><vehicle depart="769.00" id="192" type="nor">
        <route edges="3/3to3/2 3/2to3/1 3/1to2/1 2/1to2/2 2/2to3/2"/>
    </vehicle><vehicle depart="773.00" id="193" type="nor">
        <route edges="0/3to0/2 0/2to0/1"/>
    </vehicle><vehicle depart="777.00" id="194" type="nor">
        <route edges="3/2to2/2 2/2to1/2 1/2to1/3 1/3to2/3"/>
    </vehicle><vehicle depart="781.00" id="195" type="nor">
        <route edges="3/2to3/3 3/3to2/3 2/3to1/3 1/3to0/3"/>
    </vehicle><vehicle depart="785.00" id="196" type="bus">
        <route edges="1/0to0/0 0/0to0/1 0/1to0/2 0/2to1/2 1/2to1/3"/>
    </vehicle><vehicle depart="789.00" id="197" type="nor">
        <route edges="1/3to2/3 2/3to2/2 2/2to1/2 1/2to1/1 1/1to1/0 1/0to2/0"/>
    </vehicle><vehicle depart="793.00" id="198" type="nor">
        <route edges="2/2to2/1 2/1to1/1 1/1to0/1 0/1to0/0 0/0to1/0"/>
    </vehicle><vehicle depart="797.00" id="199" type="nor">
        <route edges="0/0to0/1 0/1to0/2 0/2to1/2 1/2to1/3 1/3to0/3"/>
    </vehicle><vehicle depart="801.00" id="200" type="nor">
        <route edges="1/3to0/3 0/3to0/2 0/2to1/2 1/2to1/3"/>
    </vehicle><vehicle depart="805.00" id="201" type="nor">
        <route edges="0/0to0/1 0/1to1/1 1/1to1/2 1/2to0/2 0/2to0/1 0/1to0/0 0/0to1/0"/>
    </vehicle><vehicle depart="809.00" id="202" type="nor">
        <route edges="3/2to3/1 3/1to2/1 2/1to1/1 1/1to1/2 1/2to1/3 1/3to2/3"/>
    </vehicle><vehicle depart="813.00" id="203" type="nor">
        <route edges="0/0to0/1 0/1to0/2 0/2to1/2 1/2to2/2 2/2to2/3 2/3to1/3"/>
    </vehicle><vehicle depart="817.00" id="204" type="nor">
        <route edges="0/1to0/0 0/0to1/0 1/0to1/1 1/1to0/1 0/1to0/2 0/2to0/3"/>
    </vehicle><vehicle depart="821.00" id="205" type="nor">
        <route edges="1/3to0/3 0/3to0/2 0/2to0/1 0/1to1/1 1/1to1/0 1/0to0/0 0/0to0/1"/>
    </vehicle><vehicle depart="825.00" id="206" type="nor">
        <route edges="3/1to2/1 2/1to2/2 2/2to1/2 1/2to1/1"/>
    </vehicle><vehicle depart="829.00" id="207" type="nor">
        <route edges="1/2to2/2 2/2to2/1 2/1to1/1 1/1to0/1 0/1to0/2 0/2to1/2"/>
    </vehicle><vehicle depart="833.00" id="208" type="nor">
        <route edges="0/2to0/1 0/1to1/1 1/1to1/2 1/2to1/3 1/3to2/3"/>
    </vehicle><vehicle depart="837.00" id="209" type="nor">
        <route edges="0/2to0/1 0/1to1/1 1/1to1/2 1/2to2/2 2/2to2/3"/>
    </vehicle><vehicle depart="841.00" id="210" type="nor">
        <route edges="2/1to2/0"/>
    </vehicle><vehicle depart="845.00" id="211" type="eme">
        <route edges="0/0to0/1 0/1to1/1 1/1to1/2 1/2to0/2"/>
    </vehicle><vehicle depart="849.00" id="212" type="eme">
        <route edges="1/3to1/2 1/2to1/1 1/1to1/0 1/0to0/0 0/0to0/1"/>
    </vehicle><vehicle depart="853.00" id="213" type="nor">
        <route edges="1/1to1/2 1/2to2/2 2/2to2/1 2/1to2/0 2/0to1/0"/>
    </vehicle><vehicle depart="857.00" id="214" type="eme">
        <route edges="1/3to0/3 0/3to0/2 0/2to0/1"/>
    </vehicle><vehicle depart="861.00" id="215" type="nor">
        <route edges="2/0to2/1 2/1to1/1 1/1to0/1 0/1to0/0 0/0to1/0 1/0to1/1"/>
    </vehicle><vehicle depart="865.00" id="216" type="nor">
        <route edges="0/2to0/1 0/1to1/1 1/1to2/1"/>
    </vehicle><vehicle depart="869.00" id="217" type="nor">
        <route edges="0/2to0/3 0/3to1/3 1/3to1/2 1/2to1/1 1/1to2/1"/>
    </vehicle><vehicle depart="873.00" id="218" type="nor">
        <route edges="1/1to2/1 2/1to2/2 2/2to1/2 1/2to0/2 0/2to0/1 0/1to0/0 0/0to1/0"/>
    </vehicle><vehicle depart="877.00" id="219" type="nor">
        <route edges="0/0to1/0 1/0to1/1 1/1to2/1 2/1to3/1 3/1to3/0"/>
    </vehicle><vehicle depart="881.00" id="220" type="nor">
        <route edges="2/3to1/3 1/3to1/2 1/2to1/1 1/1to0/1 0/1to0/2"/>
    </vehicle><vehicle depart="885.00" id="221" type="nor">
        <route edges="2/3to3/3 3/3to3/2 3/2to3/1 3/1to3/0 3/0to2/0 2/0to2/1"/>
    </vehicle><vehicle depart="889.00" id="222" type="nor">
        <route edges="1/1to1/0 1/0to2/0 2/0to2/1 2/1to2/2 2/2to2/3 2/3to1/3 1/3to1/2"/>
    </vehicle><vehicle depart="893.00" id="223" type="nor">
        <route edges="2/0to2/1 2/1to1/1 1/1to1/2 1/2to1/3 1/3to2/3"/>
    </vehicle><vehicle depart="897.00" id="224" type="nor">
        <route edges="3/2to3/3 3/3to2/3 2/3to1/3 1/3to1/2 1/2to1/1 1/1to2/1 2/1to2/2"/>
    </vehicle><vehicle depart="901.00" id="225" type="nor">
        <route edges="3/1to3/0 3/0to2/0 2/0to2/1 2/1to2/2 2/2to2/3 2/3to1/3"/>
    </vehicle><vehicle depart="905.00" id="226" type="eme">
        <route edges="1/0to2/0 2/0to2/1 2/1to2/2 2/2to1/2"/>
    </vehicle><vehicle depart="909.00" id="227" type="nor">
        <route edges="0/0to1/0 1/0to1/1 1/1to1/2 1/2to2/2 2/2to3/2"/>
    </vehicle><vehicle depart="913.00" id="228" type="nor">
        <route edges="1/0to1/1 1/1to1/2 1/2to1/3 1/3to0/3"/>
    </vehicle><vehicle depart="917.00" id="229" type="nor">
        <route edges="1/0to0/0 0/0to0/1 0/1to1/1 1/1to2/1 2/1to3/1 3/1to3/2 3/2to2/2"/>
    </vehicle><vehicle depart="921.00" id="230" type="bus">