<?xml version="1.0" encoding="UTF-8"?>

<!-- generated on Mon Dec  8 08:15:27 2014 by SUMO netgenerate Version 0.19.0
<?xml version="1.0" encoding="UTF-8"?>

<configuration xmlns:xsi="http://www.w3.org/2001/XMLSchema-instance" xsi:noNamespaceSchemaLocation="http://sumo-sim.org/xsd/netgenerateConfiguration.xsd">

    <spider_network>
        <spider value="true"/>
        <spider.arm-number value="4"/>
        <spider.circle-number value="4"/>
    </spider_network>

    <output>
        <output-file value="net.net.xml"/>
    </output>

    <tls_building>
        <tls.guess value="true"/>
    </tls_building>

    <processing>
        <no-turnarounds value="true"/>
    </processing>

</configuration>
-->

<net version="0.13" xmlns:xsi="http://www.w3.org/2001/XMLSchema-instance" xsi:noNamespaceSchemaLocation="http://sumo-sim.org/xsd/net_file.xsd">

    <location netOffset="400.00,400.00" convBoundary="0.00,0.00,800.00,800.00" origBoundary="-400.00,-400.00,400.00,400.00" projParameter="!"/>

    <edge id=":1_0" function="internal">
        <lane id=":1_0_0" index="0" speed="13.90" length="5.00" shape="398.35,404.75 398.16,403.39 397.58,402.42 396.61,401.84 395.25,401.65"/>
    </edge>
    <edge id=":1_1" function="internal">
        <lane id=":1_1_0" index="0" speed="13.90" length="9.50" shape="398.35,404.75 398.35,395.25"/>
    </edge>
    <edge id=":1_2" function="internal">
        <lane id=":1_2_0" index="0" speed="13.90" length="3.18" shape="398.35,404.75 398.75,401.95 398.93,401.65"/>
    </edge>
    <edge id=":1_12" function="internal">
        <lane id=":1_12_0" index="0" speed="13.90" length="7.14" shape="398.93,401.65 399.95,399.95 401.95,398.75 404.75,398.35"/>
    </edge>
    <edge id=":1_3" function="internal">
        <lane id=":1_3_0" index="0" speed="13.90" length="5.00" shape="404.75,401.65 403.39,401.84 402.42,402.42 401.84,403.39 401.65,404.75"/>
    </edge>
    <edge id=":1_4" function="internal">
        <lane id=":1_4_0" index="0" speed="13.90" length="9.50" shape="404.75,401.65 395.25,401.65"/>
    </edge>
    <edge id=":1_5" function="internal">
        <lane id=":1_5_0" index="0" speed="13.90" length="3.18" shape="404.75,401.65 401.95,401.25 401.65,401.07"/>
    </edge>
    <edge id=":1_13" function="internal">
        <lane id=":1_13_0" index="0" speed="13.90" length="7.14" shape="401.65,401.07 399.95,400.05 398.75,398.05 398.35,395.25"/>
    </edge>
    <edge id=":1_6" function="internal">
        <lane id=":1_6_0" index="0" speed="13.90" length="5.00" shape="401.65,395.25 401.84,396.61 402.42,397.58 403.39,398.16 404.75,398.35"/>
    </edge>
    <edge id=":1_7" function="internal">
        <lane id=":1_7_0" index="0" speed="13.90" length="9.50" shape="401.65,395.25 401.65,404.75"/>
    </edge>
    <edge id=":1_8" function="internal">
        <lane id=":1_8_0" index="0" speed="13.90" length="3.18" shape="401.65,395.25 401.25,398.05 401.07,398.35"/>
    </edge>
    <edge id=":1_14" function="internal">
        <lane id=":1_14_0" index="0" speed="13.90" length="7.14" shape="401.07,398.35 400.05,400.05 398.05,401.25 395.25,401.65"/>
    </edge>
    <edge id=":1_9" function="internal">
        <lane id=":1_9_0" index="0" speed="13.90" length="5.00" shape="395.25,398.35 396.61,398.16 397.58,397.58 398.16,396.61 398.35,395.25"/>
    </edge>
    <edge id=":1_10" function="internal">
        <lane id=":1_10_0" index="0" speed="13.90" length="9.50" shape="395.25,398.35 404.75,398.35"/>
    </edge>
    <edge id=":1_11" function="internal">
        <lane id=":1_11_0" index="0" speed="13.90" length="3.18" shape="395.25,398.35 398.05,398.75 398.35,398.93"/>
    </edge>
    <edge id=":1_15" function="internal">
        <lane id=":1_15_0" index="0" speed="13.90" length="7.14" shape="398.35,398.93 400.05,399.95 401.25,401.95 401.65,404.75"/>
    </edge>
    <edge id=":1/1_0" function="internal">
        <lane id=":1/1_0_0" index="0" speed="13.90" length="10.43" shape="502.85,401.65 501.52,402.03 499.69,403.18 497.37,405.10 494.56,407.78"/>
    </edge>
    <edge id=":1/1_1" function="internal">
        <lane id=":1/1_1_0" index="0" speed="13.90" length="12.19" shape="502.85,401.65 499.53,401.65 496.75,401.65 493.97,401.65 490.65,401.65"/>
    </edge>
    <edge id=":1/1_2" function="internal">
        <lane id=":1/1_2_0" index="0" speed="13.90" length="4.81" shape="502.85,401.65 500.86,401.21 498.43,399.88"/>
    </edge>
    <edge id=":1/1_12" function="internal">
        <lane id=":1/1_12_0" index="0" speed="13.90" length="8.18" shape="498.43,399.88 495.55,397.66 492.22,394.56"/>
    </edge>
    <edge id=":1/1_3" function="internal">
        <lane id=":1/1_3_0" index="0" speed="13.90" length="10.43" shape="494.56,392.22 497.37,394.90 499.69,396.82 501.52,397.97 502.85,398.35"/>
    </edge>
    <edge id=":1/1_4" function="internal">
        <lane id=":1/1_4_0" index="0" speed="13.90" length="7.17" shape="494.56,392.22 497.47,396.11 498.03,398.35"/>
    </edge>
    <edge id=":1/1_5" function="internal">
        <lane id=":1/1_5_0" index="0" speed="13.90" length="7.30" shape="494.56,392.22 497.85,396.35 498.15,398.35"/>
    </edge>
    <edge id=":1/1_13" function="internal">
        <lane id=":1/1_13_0" index="0" speed="13.90" length="10.57" shape="498.03,398.35 498.45,400.00 497.47,403.89 494.56,407.78"/>
    </edge>
    <edge id=":1/1_14" function="internal">
        <lane id=":1/1_14_0" index="0" speed="13.90" length="9.21" shape="498.15,398.35 498.29,399.29 495.90,401.06 490.65,401.65"/>
    </edge>
    <edge id=":1/1_6" function="internal">
        <lane id=":1/1_6_0" index="0" speed="13.90" length="6.64" shape="490.65,398.35 492.76,398.11 493.73,397.40 493.55,396.22 492.22,394.56"/>
    </edge>
    <edge id=":1/1_7" function="internal">
        <lane id=":1/1_7_0" index="0" speed="13.90" length="12.19" shape="490.65,398.35 493.97,398.35 496.75,398.35 499.53,398.35 502.85,398.35"/>
    </edge>
    <edge id=":1/1_8" function="internal">
        <lane id=":1/1_8_0" index="0" speed="13.90" length="4.02" shape="490.65,398.35 494.65,398.80"/>
    </edge>
    <edge id=":1/1_15" function="internal">
        <lane id=":1/1_15_0" index="0" speed="13.90" length="12.49" shape="494.65,398.80 495.90,398.94 498.29,400.71 497.85,403.65 494.56,407.78"/>
    </edge>
    <edge id=":1/1_9" function="internal">
        <lane id=":1/1_9_0" index="0" speed="13.90" length="6.64" shape="492.22,405.44 493.55,403.78 493.73,402.60 492.76,401.89 490.65,401.65"/>
    </edge>
    <edge id=":1/1_10" function="internal">
        <lane id=":1/1_10_0" index="0" speed="13.90" length="12.41" shape="492.22,405.44 494.27,402.72 494.95,400.00 494.27,397.28 492.22,394.56"/>
    </edge>
    <edge id=":1/1_11" function="internal">
        <lane id=":1/1_11_0" index="0" speed="13.90" length="5.68" shape="492.22,405.44 495.55,402.34 496.44,401.65"/>
    </edge>
    <edge id=":1/1_16" function="internal">
        <lane id=":1/1_16_0" index="0" speed="13.90" length="7.31" shape="496.44,401.65 498.43,400.12 500.86,398.79 502.85,398.35"/>
    </edge>
    <edge id=":1/2_0" function="internal">
        <lane id=":1/2_0_0" index="0" speed="13.90" length="10.43" shape="602.85,401.65 601.52,402.03 599.69,403.18 597.37,405.10 594.56,407.78"/>
    </edge>
    <edge id=":1/2_1" function="internal">
        <lane id=":1/2_1_0" index="0" speed="13.90" length="12.19" shape="602.85,401.65 599.53,401.65 596.75,401.65 593.97,401.65 590.65,401.65"/>
    </edge>
    <edge id=":1/2_2" function="internal">
        <lane id=":1/2_2_0" index="0" speed="13.90" length="4.74" shape="602.85,401.65 599.57,401.04 598.37,400.29"/>
    </edge>
    <edge id=":1/2_12" function="internal">
        <lane id=":1/2_12_0" index="0" speed="13.90" length="8.45" shape="598.37,400.29 596.99,399.43 594.67,397.16 592.22,394.56"/>
    </edge>
    <edge id=":1/2_3" function="internal">
        <lane id=":1/2_3_0" index="0" speed="13.90" length="10.43" shape="594.56,392.22 597.37,394.90 599.69,396.82 601.52,397.97 602.85,398.35"/>
    </edge>
    <edge id=":1/2_4" function="internal">
        <lane id=":1/2_4_0" index="0" speed="13.90" length="7.17" shape="594.56,392.22 597.47,396.11 598.03,398.35"/>
    </edge>
    <edge id=":1/2_5" function="internal">
        <lane id=":1/2_5_0" index="0" speed="13.90" length="7.30" shape="594.56,392.22 597.85,396.35 598.15,398.35"/>
    </edge>
    <edge id=":1/2_13" function="internal">
        <lane id=":1/2_13_0" index="0" speed="13.90" length="10.57" shape="598.03,398.35 598.45,400.00 597.47,403.89 594.56,407.78"/>
    </edge>
    <edge id=":1/2_14" function="internal">
        <lane id=":1/2_14_0" index="0" speed="13.90" length="9.21" shape="598.15,398.35 598.29,399.29 595.90,401.06 590.65,401.65"/>
    </edge>
    <edge id=":1/2_6" function="internal">
        <lane id=":1/2_6_0" index="0" speed="13.90" length="6.64" shape="590.65,398.35 592.76,398.11 593.73,397.40 593.55,396.22 592.22,394.56"/>
    </edge>
    <edge id=":1/2_7" function="internal">
        <lane id=":1/2_7_0" index="0" speed="13.90" length="12.19" shape="590.65,398.35 593.97,398.35 596.75,398.35 599.53,398.35 602.85,398.35"/>
    </edge>
    <edge id=":1/2_8" function="internal">
        <lane id=":1/2_8_0" index="0" speed="13.90" length="4.02" shape="590.65,398.35 594.65,398.80"/>
    </edge>
    <edge id=":1/2_15" function="internal">
        <lane id=":1/2_15_0" index="0" speed="13.90" length="12.49" shape="594.65,398.80 595.90,398.94 598.29,400.71 597.85,403.65 594.56,407.78"/>
    </edge>
    <edge id=":1/2_9" function="internal">
        <lane id=":1/2_9_0" index="0" speed="13.90" length="6.64" shape="592.22,405.44 593.55,403.78 593.73,402.60 592.76,401.89 590.65,401.65"/>
    </edge>
    <edge id=":1/2_10" function="internal">
        <lane id=":1/2_10_0" index="0" speed="13.90" length="12.41" shape="592.22,405.44 594.27,402.72 594.95,400.00 594.27,397.28 592.22,394.56"/>
    </edge>
    <edge id=":1/2_11" function="internal">
        <lane id=":1/2_11_0" index="0" speed="13.90" length="5.68" shape="592.22,405.44 595.55,402.34 596.44,401.65"/>
    </edge>
    <edge id=":1/2_16" function="internal">
        <lane id=":1/2_16_0" index="0" speed="13.90" length="7.31" shape="596.44,401.65 598.43,400.12 600.86,398.79 602.85,398.35"/>
    </edge>
    <edge id=":1/3_0" function="internal">
        <lane id=":1/3_0_0" index="0" speed="13.90" length="10.43" shape="702.85,401.65 701.52,402.03 699.69,403.18 697.37,405.10 694.56,407.78"/>
    </edge>
    <edge id=":1/3_1" function="internal">
        <lane id=":1/3_1_0" index="0" speed="13.90" length="12.19" shape="702.85,401.65 699.53,401.65 696.75,401.65 693.97,401.65 690.65,401.65"/>
    </edge>
    <edge id=":1/3_2" function="internal">
        <lane id=":1/3_2_0" index="0" speed="13.90" length="4.74" shape="702.85,401.65 699.57,401.04 698.37,400.29"/>
    </edge>
    <edge id=":1/3_12" function="internal">
        <lane id=":1/3_12_0" index="0" speed="13.90" length="8.45" shape="698.37,400.29 696.99,399.43 694.67,397.16 692.22,394.56"/>
    </edge>
    <edge id=":1/3_3" function="internal">
        <lane id=":1/3_3_0" index="0" speed="13.90" length="10.43" shape="694.56,392.22 697.37,394.90 699.69,396.82 701.52,397.97 702.85,398.35"/>
    </edge>
    <edge id=":1/3_4" function="internal">
        <lane id=":1/3_4_0" index="0" speed="13.90" length="7.17" shape="694.56,392.22 697.47,396.11 698.03,398.35"/>
    </edge>
    <edge id=":1/3_5" function="internal">
        <lane id=":1/3_5_0" index="0" speed="13.90" length="7.30" shape="694.56,392.22 697.85,396.35 698.15,398.35"/>
    </edge>
    <edge id=":1/3_13" function="internal">
        <lane id=":1/3_13_0" index="0" speed="13.90" length="10.57" shape="698.03,398.35 698.45,400.00 697.47,403.89 694.56,407.78"/>
    </edge>
    <edge id=":1/3_14" function="internal">
        <lane id=":1/3_14_0" index="0" speed="13.90" length="9.21" shape="698.15,398.35 698.29,399.29 695.90,401.06 690.65,401.65"/>
    </edge>
    <edge id=":1/3_6" function="internal">
        <lane id=":1/3_6_0" index="0" speed="13.90" length="6.64" shape="690.65,398.35 692.76,398.11 693.73,397.40 693.55,396.22 692.22,394.56"/>
    </edge>
    <edge id=":1/3_7" function="internal">
        <lane id=":1/3_7_0" index="0" speed="13.90" length="12.19" shape="690.65,398.35 693.97,398.35 696.75,398.35 699.53,398.35 702.85,398.35"/>
    </edge>
    <edge id=":1/3_8" function="internal">
        <lane id=":1/3_8_0" index="0" speed="13.90" length="4.02" shape="690.65,398.35 694.65,398.80"/>
    </edge>
    <edge id=":1/3_15" function="internal">
        <lane id=":1/3_15_0" index="0" speed="13.90" length="12.49" shape="694.65,398.80 695.90,398.94 698.29,400.71 697.85,403.65 694.56,407.78"/>
    </edge>
    <edge id=":1/3_9" function="internal">
        <lane id=":1/3_9_0" index="0" speed="13.90" length="6.64" shape="692.22,405.44 693.55,403.78 693.73,402.60 692.76,401.89 690.65,401.65"/>
    </edge>
    <edge id=":1/3_10" function="internal">
        <lane id=":1/3_10_0" index="0" speed="13.90" length="12.41" shape="692.22,405.44 694.27,402.72 694.95,400.00 694.27,397.28 692.22,394.56"/>
    </edge>
    <edge id=":1/3_11" function="internal">
        <lane id=":1/3_11_0" index="0" speed="13.90" length="5.68" shape="692.22,405.44 695.55,402.34 696.44,401.65"/>
    </edge>
    <edge id=":1/3_16" function="internal">
        <lane id=":1/3_16_0" index="0" speed="13.90" length="7.31" shape="696.44,401.65 698.43,400.12 700.86,398.79 702.85,398.35"/>
    </edge>
    <edge id=":1/4_0" function="internal">
        <lane id=":1/4_0_0" index="0" speed="13.90" length="9.58" shape="794.56,392.22 797.47,396.11 798.45,400.00 798.27,400.69"/>
    </edge>
    <edge id=":1/4_1" function="internal">
        <lane id=":1/4_1_0" index="0" speed="13.90" length="12.49" shape="794.56,392.22 797.85,396.35 798.29,399.29 795.90,401.06 794.65,401.20"/>
    </edge>
    <edge id=":1/4_6" function="internal">
        <lane id=":1/4_6_0" index="0" speed="13.90" length="8.16" shape="798.27,400.69 797.47,403.89 794.56,407.78"/>
    </edge>
    <edge id=":1/4_7" function="internal">
        <lane id=":1/4_7_0" index="0" speed="13.90" length="4.02" shape="794.65,401.20 790.65,401.65"/>
    </edge>
    <edge id=":1/4_2" function="internal">
        <lane id=":1/4_2_0" index="0" speed="13.90" length="6.64" shape="790.65,398.35 792.76,398.11 793.73,397.40 793.55,396.22 792.22,394.56"/>
    </edge>
    <edge id=":1/4_3" function="internal">
        <lane id=":1/4_3_0" index="0" speed="13.90" length="4.02" shape="790.65,398.35 794.65,398.80"/>
    </edge>
    <edge id=":1/4_8" function="internal">
        <lane id=":1/4_8_0" index="0" speed="13.90" length="12.49" shape="794.65,398.80 795.90,398.94 798.29,400.71 797.85,403.65 794.56,407.78"/>
    </edge>
    <edge id=":1/4_4" function="internal">
        <lane id=":1/4_4_0" index="0" speed="13.90" length="6.64" shape="792.22,405.44 793.55,403.78 793.73,402.60 792.76,401.89 790.65,401.65"/>
    </edge>
    <edge id=":1/4_5" function="internal">
        <lane id=":1/4_5_0" index="0" speed="13.90" length="12.41" shape="792.22,405.44 794.27,402.72 794.95,400.00 794.27,397.28 792.22,394.56"/>
    </edge>
    <edge id=":2/1_0" function="internal">
        <lane id=":2/1_0_0" index="0" speed="13.90" length="10.43" shape="398.35,502.85 397.97,501.52 396.82,499.69 394.90,497.37 392.22,494.56"/>
    </edge>
    <edge id=":2/1_1" function="internal">
        <lane id=":2/1_1_0" index="0" speed="13.90" length="12.19" shape="398.35,502.85 398.35,499.53 398.35,496.75 398.35,493.97 398.35,490.65"/>
    </edge>
    <edge id=":2/1_2" function="internal">
        <lane id=":2/1_2_0" index="0" speed="13.90" length="4.81" shape="398.35,502.85 398.79,500.86 400.12,498.43"/>
    </edge>
    <edge id=":2/1_12" function="internal">
        <lane id=":2/1_12_0" index="0" speed="13.90" length="8.18" shape="400.12,498.43 402.34,495.55 405.44,492.22"/>
    </edge>
    <edge id=":2/1_3" function="internal">
        <lane id=":2/1_3_0" index="0" speed="13.90" length="10.43" shape="407.78,494.56 405.10,497.37 403.18,499.69 402.03,501.52 401.65,502.85"/>
    </edge>
    <edge id=":2/1_4" function="internal">
        <lane id=":2/1_4_0" index="0" speed="13.90" length="7.17" shape="407.78,494.56 403.89,497.47 401.65,498.03"/>
    </edge>
    <edge id=":2/1_5" function="internal">
        <lane id=":2/1_5_0" index="0" speed="13.90" length="7.30" shape="407.78,494.56 403.65,497.85 401.65,498.15"/>
    </edge>
    <edge id=":2/1_13" function="internal">
        <lane id=":2/1_13_0" index="0" speed="13.90" length="10.57" shape="401.65,498.03 400.00,498.45 396.11,497.47 392.22,494.56"/>
    </edge>
    <edge id=":2/1_14" function="internal">
        <lane id=":2/1_14_0" index="0" speed="13.90" length="9.21" shape="401.65,498.15 400.71,498.29 398.94,495.90 398.35,490.65"/>
    </edge>
    <edge id=":2/1_6" function="internal">
        <lane id=":2/1_6_0" index="0" speed="13.90" length="6.64" shape="401.65,490.65 401.89,492.76 402.60,493.73 403.78,493.55 405.44,492.22"/>
    </edge>
    <edge id=":2/1_7" function="internal">
        <lane id=":2/1_7_0" index="0" speed="13.90" length="12.19" shape="401.65,490.65 401.65,493.97 401.65,496.75 401.65,499.53 401.65,502.85"/>
    </edge>
    <edge id=":2/1_8" function="internal">
        <lane id=":2/1_8_0" index="0" speed="13.90" length="4.02" shape="401.65,490.65 401.20,494.65"/>
    </edge>
    <edge id=":2/1_15" function="internal">
        <lane id=":2/1_15_0" index="0" speed="13.90" length="12.49" shape="401.20,494.65 401.06,495.90 399.29,498.29 396.35,497.85 392.22,494.56"/>
    </edge>
    <edge id=":2/1_9" function="internal">
        <lane id=":2/1_9_0" index="0" speed="13.90" length="6.64" shape="394.56,492.22 396.22,493.55 397.40,493.73 398.11,492.76 398.35,490.65"/>
    </edge>
    <edge id=":2/1_10" function="internal">
        <lane id=":2/1_10_0" index="0" speed="13.90" length="12.41" shape="394.56,492.22 397.28,494.27 400.00,494.95 402.72,494.27 405.44,492.22"/>
    </edge>
    <edge id=":2/1_11" function="internal">
        <lane id=":2/1_11_0" index="0" speed="13.90" length="5.68" shape="394.56,492.22 397.66,495.55 398.35,496.44"/>
    </edge>
    <edge id=":2/1_16" function="internal">
        <lane id=":2/1_16_0" index="0" speed="13.90" length="7.31" shape="398.35,496.44 399.88,498.43 401.21,500.86 401.65,502.85"/>
    </edge>
    <edge id=":2/2_0" function="internal">
        <lane id=":2/2_0_0" index="0" speed="13.90" length="10.43" shape="398.35,602.85 397.97,601.52 396.82,599.69 394.90,597.37 392.22,594.56"/>
    </edge>
    <edge id=":2/2_1" function="internal">
        <lane id=":2/2_1_0" index="0" speed="13.90" length="12.19" shape="398.35,602.85 398.35,599.53 398.35,596.75 398.35,593.97 398.35,590.65"/>
    </edge>
    <edge id=":2/2_2" function="internal">
        <lane id=":2/2_2_0" index="0" speed="13.90" length="4.74" shape="398.35,602.85 398.96,599.57 399.71,598.37"/>
    </edge>
    <edge id=":2/2_12" function="internal">
        <lane id=":2/2_12_0" index="0" speed="13.90" length="8.45" shape="399.71,598.37 400.57,596.99 402.84,594.67 405.44,592.22"/>
    </edge>
    <edge id=":2/2_3" function="internal">
        <lane id=":2/2_3_0" index="0" speed="13.90" length="10.43" shape="407.78,594.56 405.10,597.37 403.18,599.69 402.03,601.52 401.65,602.85"/>
    </edge>
    <edge id=":2/2_4" function="internal">
        <lane id=":2/2_4_0" index="0" speed="13.90" length="7.17" shape="407.78,594.56 403.89,597.47 401.65,598.03"/>
    </edge>
    <edge id=":2/2_5" function="internal">
        <lane id=":2/2_5_0" index="0" speed="13.90" length="7.30" shape="407.78,594.56 403.65,597.85 401.65,598.15"/>
    </edge>
    <edge id=":2/2_13" function="internal">
        <lane id=":2/2_13_0" index="0" speed="13.90" length="10.57" shape="401.65,598.03 400.00,598.45 396.11,597.47 392.22,594.56"/>
    </edge>
    <edge id=":2/2_14" function="internal">
        <lane id=":2/2_14_0" index="0" speed="13.90" length="9.21" shape="401.65,598.15 400.71,598.29 398.94,595.90 398.35,590.65"/>
    </edge>
    <edge id=":2/2_6" function="internal">
        <lane id=":2/2_6_0" index="0" speed="13.90" length="6.64" shape="401.65,590.65 401.89,592.76 402.60,593.73 403.78,593.55 405.44,592.22"/>
    </edge>
    <edge id=":2/2_7" function="internal">
        <lane id=":2/2_7_0" index="0" speed="13.90" length="12.19" shape="401.65,590.65 401.65,593.97 401.65,596.75 401.65,599.53 401.65,602.85"/>
    </edge>
    <edge id=":2/2_8" function="internal">
        <lane id=":2/2_8_0" index="0" speed="13.90" length="4.02" shape="401.65,590.65 401.20,594.65"/>
    </edge>
    <edge id=":2/2_15" function="internal">
        <lane id=":2/2_15_0" index="0" speed="13.90" length="12.49" shape="401.20,594.65 401.06,595.90 399.29,598.29 396.35,597.85 392.22,594.56"/>
    </edge>
    <edge id=":2/2_9" function="internal">
        <lane id=":2/2_9_0" index="0" speed="13.90" length="6.64" shape="394.56,592.22 396.22,593.55 397.40,593.73 398.11,592.76 398.35,590.65"/>
    </edge>
    <edge id=":2/2_10" function="internal">
        <lane id=":2/2_10_0" index="0" speed="13.90" length="12.41" shape="394.56,592.22 397.28,594.27 400.00,594.95 402.72,594.27 405.44,592.22"/>
    </edge>
    <edge id=":2/2_11" function="internal">
        <lane id=":2/2_11_0" index="0" speed="13.90" length="5.68" shape="394.56,592.22 397.66,595.55 398.35,596.44"/>
    </edge>
    <edge id=":2/2_16" function="internal">
        <lane id=":2/2_16_0" index="0" speed="13.90" length="7.31" shape="398.35,596.44 399.88,598.43 401.21,600.86 401.65,602.85"/>
    </edge>
    <edge id=":2/3_0" function="internal">
        <lane id=":2/3_0_0" index="0" speed="13.90" length="10.43" shape="398.35,702.85 397.97,701.52 396.82,699.69 394.90,697.37 392.22,694.56"/>
    </edge>
    <edge id=":2/3_1" function="internal">
        <lane id=":2/3_1_0" index="0" speed="13.90" length="12.19" shape="398.35,702.85 398.35,699.53 398.35,696.75 398.35,693.97 398.35,690.65"/>
    </edge>
    <edge id=":2/3_2" function="internal">
        <lane id=":2/3_2_0" index="0" speed="13.90" length="4.74" shape="398.35,702.85 398.96,699.57 399.71,698.37"/>
    </edge>
    <edge id=":2/3_12" function="internal">
        <lane id=":2/3_12_0" index="0" speed="13.90" length="8.45" shape="399.71,698.37 400.57,696.99 402.84,694.67 405.44,692.22"/>
    </edge>
    <edge id=":2/3_3" function="internal">
        <lane id=":2/3_3_0" index="0" speed="13.90" length="10.43" shape="407.78,694.56 405.10,697.37 403.18,699.69 402.03,701.52 401.65,702.85"/>
    </edge>
    <edge id=":2/3_4" function="internal">
        <lane id=":2/3_4_0" index="0" speed="13.90" length="7.17" shape="407.78,694.56 403.89,697.47 401.65,698.03"/>
    </edge>
    <edge id=":2/3_5" function="internal">
        <lane id=":2/3_5_0" index="0" speed="13.90" length="7.30" shape="407.78,694.56 403.65,697.85 401.65,698.15"/>
    </edge>
    <edge id=":2/3_13" function="internal">
        <lane id=":2/3_13_0" index="0" speed="13.90" length="10.57" shape="401.65,698.03 400.00,698.45 396.11,697.47 392.22,694.56"/>
    </edge>
    <edge id=":2/3_14" function="internal">
        <lane id=":2/3_14_0" index="0" speed="13.90" length="9.21" shape="401.65,698.15 400.71,698.29 398.94,695.90 398.35,690.65"/>
    </edge>
    <edge id=":2/3_6" function="internal">
        <lane id=":2/3_6_0" index="0" speed="13.90" length="6.64" shape="401.65,690.65 401.89,692.76 402.60,693.73 403.78,693.55 405.44,692.22"/>
    </edge>
    <edge id=":2/3_7" function="internal">
        <lane id=":2/3_7_0" index="0" speed="13.90" length="12.19" shape="401.65,690.65 401.65,693.97 401.65,696.75 401.65,699.53 401.65,702.85"/>
    </edge>
    <edge id=":2/3_8" function="internal">
        <lane id=":2/3_8_0" index="0" speed="13.90" length="4.02" shape="401.65,690.65 401.20,694.65"/>
    </edge>
    <edge id=":2/3_15" function="internal">
        <lane id=":2/3_15_0" index="0" speed="13.90" length="12.49" shape="401.20,694.65 401.06,695.90 399.29,698.29 396.35,697.85 392.22,694.56"/>
    </edge>
    <edge id=":2/3_9" function="internal">
        <lane id=":2/3_9_0" index="0" speed="13.90" length="6.64" shape="394.56,692.22 396.22,693.55 397.40,693.73 398.11,692.76 398.35,690.65"/>
    </edge>
    <edge id=":2/3_10" function="internal">
        <lane id=":2/3_10_0" index="0" speed="13.90" length="12.41" shape="394.56,692.22 397.28,694.27 400.00,694.95 402.72,694.27 405.44,692.22"/>
    </edge>
    <edge id=":2/3_11" function="internal">
        <lane id=":2/3_11_0" index="0" speed="13.90" length="5.68" shape="394.56,692.22 397.66,695.55 398.35,696.44"/>
    </edge>
    <edge id=":2/3_16" function="internal">
        <lane id=":2/3_16_0" index="0" speed="13.90" length="7.31" shape="398.35,696.44 399.88,698.43 401.21,700.86 401.65,702.85"/>
    </edge>
    <edge id=":2/4_0" function="internal">
        <lane id=":2/4_0_0" index="0" speed="13.90" length="9.58" shape="407.78,794.56 403.89,797.47 400.00,798.45 399.31,798.27"/>
    </edge>
    <edge id=":2/4_1" function="internal">
        <lane id=":2/4_1_0" index="0" speed="13.90" length="12.49" shape="407.78,794.56 403.65,797.85 400.71,798.29 398.94,795.90 398.80,794.65"/>
    </edge>
    <edge id=":2/4_6" function="internal">
        <lane id=":2/4_6_0" index="0" speed="13.90" length="8.16" shape="399.31,798.27 396.11,797.47 392.22,794.56"/>
    </edge>
    <edge id=":2/4_7" function="internal">
        <lane id=":2/4_7_0" index="0" speed="13.90" length="4.02" shape="398.80,794.65 398.35,790.65"/>
    </edge>
    <edge id=":2/4_2" function="internal">
        <lane id=":2/4_2_0" index="0" speed="13.90" length="6.64" shape="401.65,790.65 401.89,792.76 402.60,793.73 403.78,793.55 405.44,792.22"/>
    </edge>
    <edge id=":2/4_3" function="internal">
        <lane id=":2/4_3_0" index="0" speed="13.90" length="4.02" shape="401.65,790.65 401.20,794.65"/>
    </edge>
    <edge id=":2/4_8" function="internal">
        <lane id=":2/4_8_0" index="0" speed="13.90" length="12.49" shape="401.20,794.65 401.06,795.90 399.29,798.29 396.35,797.85 392.22,794.56"/>
    </edge>
    <edge id=":2/4_4" function="internal">
        <lane id=":2/4_4_0" index="0" speed="13.90" length="6.64" shape="394.56,792.22 396.22,793.55 397.40,793.73 398.11,792.76 398.35,790.65"/>
    </edge>
    <edge id=":2/4_5" function="internal">
        <lane id=":2/4_5_0" index="0" speed="13.90" length="12.41" shape="394.56,792.22 397.28,794.27 400.00,794.95 402.72,794.27 405.44,792.22"/>
    </edge>
    <edge id=":3/1_0" function="internal">
        <lane id=":3/1_0_0" index="0" speed="13.90" length="10.43" shape="305.44,407.78 302.63,405.10 300.31,403.18 298.48,402.03 297.15,401.65"/>
    </edge>
    <edge id=":3/1_1" function="internal">
        <lane id=":3/1_1_0" index="0" speed="13.90" length="7.17" shape="305.44,407.78 302.53,403.89 301.97,401.65"/>
    </edge>
    <edge id=":3/1_2" function="internal">
        <lane id=":3/1_2_0" index="0" speed="13.90" length="7.30" shape="305.44,407.78 302.15,403.65 301.85,401.65"/>
    </edge>
    <edge id=":3/1_12" function="internal">
        <lane id=":3/1_12_0" index="0" speed="13.90" length="10.57" shape="301.97,401.65 301.55,400.00 302.53,396.11 305.44,392.22"/>
    </edge>
    <edge id=":3/1_13" function="internal">
        <lane id=":3/1_13_0" index="0" speed="13.90" length="9.21" shape="301.85,401.65 301.71,400.71 304.10,398.94 309.35,398.35"/>
    </edge>
    <edge id=":3/1_3" function="internal">
        <lane id=":3/1_3_0" index="0" speed="13.90" length="6.64" shape="309.35,401.65 307.24,401.89 306.27,402.60 306.45,403.78 307.78,405.44"/>
    </edge>
    <edge id=":3/1_4" function="internal">
        <lane id=":3/1_4_0" index="0" speed="13.90" length="12.19" shape="309.35,401.65 306.03,401.65 303.25,401.65 300.47,401.65 297.15,401.65"/>
    </edge>
    <edge id=":3/1_5" function="internal">
        <lane id=":3/1_5_0" index="0" speed="13.90" length="4.02" shape="309.35,401.65 305.35,401.20"/>
    </edge>
    <edge id=":3/1_14" function="internal">
        <lane id=":3/1_14_0" index="0" speed="13.90" length="12.49" shape="305.35,401.20 304.10,401.06 301.71,399.29 302.15,396.35 305.44,392.22"/>
    </edge>
    <edge id=":3/1_6" function="internal">
        <lane id=":3/1_6_0" index="0" speed="13.90" length="6.64" shape="307.78,394.56 306.45,396.22 306.27,397.40 307.24,398.11 309.35,398.35"/>
    </edge>
    <edge id=":3/1_7" function="internal">
        <lane id=":3/1_7_0" index="0" speed="13.90" length="12.41" shape="307.78,394.56 305.73,397.28 305.05,400.00 305.73,402.72 307.78,405.44"/>
    </edge>
    <edge id=":3/1_8" function="internal">
        <lane id=":3/1_8_0" index="0" speed="13.90" length="5.68" shape="307.78,394.56 304.45,397.66 303.56,398.35"/>
    </edge>
    <edge id=":3/1_15" function="internal">
        <lane id=":3/1_15_0" index="0" speed="13.90" length="7.31" shape="303.56,398.35 301.57,399.88 299.14,401.21 297.15,401.65"/>
    </edge>
    <edge id=":3/1_9" function="internal">
        <lane id=":3/1_9_0" index="0" speed="13.90" length="10.43" shape="297.15,398.35 298.48,397.97 300.31,396.82 302.63,394.90 305.44,392.22"/>
    </edge>
    <edge id=":3/1_10" function="internal">
        <lane id=":3/1_10_0" index="0" speed="13.90" length="12.19" shape="297.15,398.35 300.47,398.35 303.25,398.35 306.03,398.35 309.35,398.35"/>
    </edge>
    <edge id=":3/1_11" function="internal">
        <lane id=":3/1_11_0" index="0" speed="13.90" length="4.81" shape="297.15,398.35 299.14,398.79 301.57,400.12"/>
    </edge>
    <edge id=":3/1_16" function="internal">
        <lane id=":3/1_16_0" index="0" speed="13.90" length="8.18" shape="301.57,400.12 304.45,402.34 307.78,405.44"/>
    </edge>
    <edge id=":3/2_0" function="internal">
        <lane id=":3/2_0_0" index="0" speed="13.90" length="10.43" shape="205.44,407.78 202.63,405.10 200.31,403.18 198.48,402.03 197.15,401.65"/>
    </edge>