<?xml version="1.0" encoding="UTF-8"?>

<!-- generated on Wed Nov 19 06:47:30 2014 by SUMO netconvert Version 0.19.0
<?xml version="1.0" encoding="UTF-8"?>

<configuration xmlns:xsi="http://www.w3.org/2001/XMLSchema-instance" xsi:noNamespaceSchemaLocation="http://sumo-sim.org/xsd/netconvertConfiguration.xsd">

    <input>
        <osm-files value="manhattan.osm"/>
    </input>

    <output>
        <output-file value="manhattan.net.xml"/>
    </output>

    <projection>
        <proj.utm value="true"/>
    </projection>

</configuration>
-->

<net version="0.13" xmlns:xsi="http://www.w3.org/2001/XMLSchema-instance" xsi:noNamespaceSchemaLocation="http://sumo-sim.org/xsd/net_file.xsd">

    <location netOffset="-600908.18,-4508064.63" convBoundary="0.00,0.00,1582.75,2302.87" origBoundary="-73.804983,40.717263,-73.786211,40.738035" projParameter="+proj=utm +zone=18 +ellps=WGS84 +datum=WGS84 +units=m +no_defs"/>

    <edge id=":1398582491_0" function="internal">
        <lane id=":1398582491_0_0" index="0" speed="13.89" length="4.82" shape="604.17,27.22 605.20,26.14 606.08,25.87 606.82,26.42 607.43,27.78"/>
    </edge>
    <edge id=":2700932426_0" function="internal">
        <lane id=":2700932426_0_0" index="0" speed="13.89" length="4.82" shape="705.15,769.13 706.31,768.19 707.22,768.04 707.88,768.68 708.30,770.11"/>
    </edge>
    <edge id=":42829490_0" function="internal">
        <lane id=":42829490_0_0" index="0" speed="13.89" length="4.82" shape="510.32,-0.34 511.38,-1.38 512.27,-1.62 512.99,-1.04 513.55,0.34"/>
    </edge>
    <edge id=":42833733_0" function="internal">
        <lane id=":42833733_0_0" index="0" speed="13.89" length="5.01" shape="477.30,1939.95 475.94,1940.19 474.99,1940.81 474.44,1941.80 474.30,1943.17"/>
    </edge>
    <edge id=":42833733_1" function="internal">
        <lane id=":42833733_1_0" index="0" speed="13.89" length="6.22" shape="477.30,1939.95 471.08,1940.18"/>
    </edge>
    <edge id=":42833733_2" function="internal">
        <lane id=":42833733_2_0" index="0" speed="13.89" length="2.41" shape="477.30,1939.95 476.03,1939.17 475.58,1938.36"/>
    </edge>
    <edge id=":42833733_9" function="internal">
        <lane id=":42833733_9_0" index="0" speed="13.89" length="2.41" shape="475.58,1938.36 475.96,1937.52 477.17,1936.65"/>
    </edge>
    <edge id=":42833733_3" function="internal">
        <lane id=":42833733_3_0" index="0" speed="13.89" length="5.00" shape="473.95,1933.67 474.19,1935.02 474.81,1935.97 475.80,1936.51 477.17,1936.65"/>
    </edge>
    <edge id=":42833733_4" function="internal">
        <lane id=":42833733_4_0" index="0" speed="13.89" length="9.51" shape="473.95,1933.67 474.30,1943.17"/>
    </edge>
    <edge id=":42833733_5" function="internal">
        <lane id=":42833733_5_0" index="0" speed="13.89" length="7.86" shape="473.95,1933.67 473.86,1936.48 473.35,1938.50 472.42,1939.73 471.08,1940.18"/>
    </edge>
    <edge id=":42833733_6" function="internal">
        <lane id=":42833733_6_0" index="0" speed="13.89" length="6.21" shape="470.96,1936.88 477.17,1936.65"/>
    </edge>
    <edge id=":42833733_7" function="internal">
        <lane id=":42833733_7_0" index="0" speed="13.89" length="4.73" shape="470.96,1936.88 472.34,1937.23 473.35,1938.40 473.90,1940.07"/>
    </edge>
    <edge id=":42833733_8" function="internal">
        <lane id=":42833733_8_0" index="0" speed="13.89" length="2.41" shape="470.96,1936.88 472.23,1937.66 472.67,1938.47"/>
    </edge>
    <edge id=":42833733_10" function="internal">
        <lane id=":42833733_10_0" index="0" speed="13.89" length="3.13" shape="473.90,1940.07 474.00,1940.38 474.30,1943.17"/>
    </edge>
    <edge id=":42833733_11" function="internal">
        <lane id=":42833733_11_0" index="0" speed="13.89" length="2.41" shape="472.67,1938.47 472.29,1939.31 471.08,1940.18"/>
    </edge>
    <edge id=":42833738_0" function="internal">
        <lane id=":42833738_0_0" index="0" speed="13.89" length="5.01" shape="469.54,1735.80 468.19,1736.03 467.24,1736.65 466.69,1737.64 466.55,1739.00"/>
    </edge>
    <edge id=":42833738_1" function="internal">
        <lane id=":42833738_1_0" index="0" speed="13.89" length="6.22" shape="469.54,1735.80 463.32,1736.00"/>
    </edge>
    <edge id=":42833738_2" function="internal">
        <lane id=":42833738_2_0" index="0" speed="13.89" length="2.41" shape="469.54,1735.80 468.28,1735.01 467.84,1734.20"/>
    </edge>
    <edge id=":42833738_9" function="internal">
        <lane id=":42833738_9_0" index="0" speed="13.89" length="2.41" shape="467.84,1734.20 468.23,1733.36 469.44,1732.50"/>
    </edge>
    <edge id=":42833738_3" function="internal">
        <lane id=":42833738_3_0" index="0" speed="13.89" length="5.04" shape="466.18,1729.49 466.43,1730.84 467.06,1731.80 468.06,1732.35 469.44,1732.50"/>
    </edge>
    <edge id=":42833738_4" function="internal">
        <lane id=":42833738_4_0" index="0" speed="13.89" length="9.52" shape="466.18,1729.49 466.55,1739.00"/>
    </edge>
    <edge id=":42833738_5" function="internal">
        <lane id=":42833738_5_0" index="0" speed="13.89" length="7.85" shape="466.18,1729.49 466.10,1732.30 465.59,1734.32 464.66,1735.55 463.32,1736.00"/>
    </edge>
    <edge id=":42833738_6" function="internal">
        <lane id=":42833738_6_0" index="0" speed="13.89" length="6.24" shape="463.20,1732.71 469.44,1732.50"/>
    </edge>
    <edge id=":42833738_7" function="internal">
        <lane id=":42833738_7_0" index="0" speed="13.89" length="4.74" shape="463.20,1732.71 464.57,1733.06 465.59,1734.22 466.15,1735.91"/>
    </edge>
    <edge id=":42833738_8" function="internal">
        <lane id=":42833738_8_0" index="0" speed="13.89" length="2.41" shape="463.20,1732.71 464.47,1733.49 464.91,1734.30"/>
    </edge>
    <edge id=":42833738_10" function="internal">
        <lane id=":42833738_10_0" index="0" speed="13.89" length="3.12" shape="466.15,1735.91 466.25,1736.21 466.55,1739.00"/>
    </edge>
    <edge id=":42833738_11" function="internal">
        <lane id=":42833738_11_0" index="0" speed="13.89" length="2.41" shape="464.91,1734.30 464.53,1735.13 463.32,1736.00"/>
    </edge>
    <edge id=":42841945_0" function="internal">
        <lane id=":42841945_0_0" index="0" speed="13.89" length="4.82" shape="7.51,1957.46 6.24,1956.69 5.79,1955.88 6.17,1955.04 7.37,1954.16"/>
    </edge>
    <edge id=":42841950_0" function="internal">
        <lane id=":42841950_0_0" index="0" speed="13.89" length="4.82" shape="0.08,1753.40 -1.20,1752.63 -1.65,1751.83 -1.28,1750.99 -0.08,1750.10"/>
    </edge>
    <edge id=":42842819_0" function="internal">
        <lane id=":42842819_0_0" index="0" speed="13.89" length="5.04" shape="243.84,1951.77 243.59,1950.41 242.97,1949.46 241.97,1948.90 240.60,1948.75"/>
    </edge>
    <edge id=":42842819_1" function="internal">
        <lane id=":42842819_1_0" index="0" speed="13.89" length="9.52" shape="243.84,1951.77 243.49,1942.25"/>
    </edge>
    <edge id=":42842819_2" function="internal">
        <lane id=":42842819_2_0" index="0" speed="13.89" length="10.33" shape="243.84,1951.77 244.13,1948.95 245.26,1946.91 247.21,1945.63 250.00,1945.13"/>
    </edge>
    <edge id=":42842819_3" function="internal">
        <lane id=":42842819_3_0" index="0" speed="13.89" length="4.82" shape="243.84,1951.77 244.62,1950.50 245.42,1950.05 246.26,1950.43 247.14,1951.64"/>
    </edge>
    <edge id=":42842819_4" function="internal">
        <lane id=":42842819_4_0" index="0" speed="13.89" length="5.00" shape="250.12,1948.43 248.77,1948.67 247.82,1949.29 247.28,1950.28 247.14,1951.64"/>
    </edge>
    <edge id=":42842819_5" function="internal">
        <lane id=":42842819_5_0" index="0" speed="13.89" length="9.53" shape="250.12,1948.43 240.60,1948.75"/>
    </edge>
    <edge id=":42842819_6" function="internal">
        <lane id=":42842819_6_0" index="0" speed="13.89" length="7.16" shape="250.12,1948.43 247.30,1948.13 245.26,1947.00 244.17,1945.33"/>
    </edge>
    <edge id=":42842819_7" function="internal">
        <lane id=":42842819_7_0" index="0" speed="13.89" length="2.41" shape="250.12,1948.43 248.85,1947.65 248.41,1946.84"/>
    </edge>
    <edge id=":42842819_16" function="internal">
        <lane id=":42842819_16_0" index="0" speed="13.89" length="3.18" shape="244.17,1945.33 243.99,1945.04 243.49,1942.25"/>
    </edge>
    <edge id=":42842819_17" function="internal">
        <lane id=":42842819_17_0" index="0" speed="13.89" length="2.41" shape="248.41,1946.84 248.79,1946.00 250.00,1945.13"/>
    </edge>
    <edge id=":42842819_8" function="internal">
        <lane id=":42842819_8_0" index="0" speed="13.89" length="5.01" shape="246.78,1942.13 247.03,1943.49 247.64,1944.44 248.63,1944.98 250.00,1945.13"/>
    </edge>
    <edge id=":42842819_9" function="internal">
        <lane id=":42842819_9_0" index="0" speed="13.89" length="9.51" shape="246.78,1942.13 247.14,1951.64"/>
    </edge>
    <edge id=":42842819_10" function="internal">
        <lane id=":42842819_10_0" index="0" speed="13.89" length="10.34" shape="246.78,1942.13 246.48,1944.95 245.35,1947.00 243.39,1948.26 240.60,1948.75"/>
    </edge>
    <edge id=":42842819_11" function="internal">
        <lane id=":42842819_11_0" index="0" speed="13.89" length="4.82" shape="246.78,1942.13 246.00,1943.40 245.19,1943.84 244.35,1943.46 243.49,1942.25"/>
    </edge>
    <edge id=":42842819_12" function="internal">
        <lane id=":42842819_12_0" index="0" speed="13.89" length="5.00" shape="240.49,1945.45 241.84,1945.22 242.79,1944.60 243.34,1943.62 243.49,1942.25"/>
    </edge>
    <edge id=":42842819_13" function="internal">
        <lane id=":42842819_13_0" index="0" speed="13.89" length="9.51" shape="240.49,1945.45 250.00,1945.13"/>
    </edge>
    <edge id=":42842819_14" function="internal">
        <lane id=":42842819_14_0" index="0" speed="13.89" length="7.14" shape="240.49,1945.45 243.31,1945.76 245.35,1946.90 246.43,1948.55"/>
    </edge>
    <edge id=":42842819_15" function="internal">
        <lane id=":42842819_15_0" index="0" speed="13.89" length="2.41" shape="240.49,1945.45 241.76,1946.24 242.19,1947.05"/>
    </edge>
    <edge id=":42842819_18" function="internal">
        <lane id=":42842819_18_0" index="0" speed="13.89" length="3.19" shape="246.43,1948.55 246.63,1948.86 247.14,1951.64"/>
    </edge>
    <edge id=":42842819_19" function="internal">
        <lane id=":42842819_19_0" index="0" speed="13.89" length="2.41" shape="242.19,1947.05 241.81,1947.89 240.60,1948.75"/>
    </edge>
    <edge id=":42842822_0" function="internal">
        <lane id=":42842822_0_0" index="0" speed="13.89" length="5.00" shape="320.38,1948.92 320.14,1947.57 319.53,1946.63 318.54,1946.08 317.17,1945.94"/>
    </edge>
    <edge id=":42842822_1" function="internal">
        <lane id=":42842822_1_0" index="0" speed="13.89" length="9.51" shape="320.38,1948.92 320.03,1939.42"/>
    </edge>
    <edge id=":42842822_2" function="internal">
        <lane id=":42842822_2_0" index="0" speed="13.89" length="7.14" shape="320.38,1948.92 320.68,1946.11 321.81,1944.06 323.47,1942.98"/>
    </edge>
    <edge id=":42842822_3" function="internal">
        <lane id=":42842822_3_0" index="0" speed="13.89" length="2.41" shape="320.38,1948.92 321.16,1947.65 321.97,1947.21"/>
    </edge>
    <edge id=":42842822_16" function="internal">
        <lane id=":42842822_16_0" index="0" speed="13.89" length="3.19" shape="323.47,1942.98 323.77,1942.78 326.55,1942.27"/>
    </edge>
    <edge id=":42842822_17" function="internal">
        <lane id=":42842822_17_0" index="0" speed="13.89" length="2.41" shape="321.97,1947.21 322.81,1947.60 323.68,1948.80"/>
    </edge>
    <edge id=":42842822_4" function="internal">
        <lane id=":42842822_4_0" index="0" speed="13.89" length="5.03" shape="326.68,1945.57 325.33,1945.82 324.38,1946.44 323.83,1947.43 323.68,1948.80"/>
    </edge>
    <edge id=":42842822_5" function="internal">
        <lane id=":42842822_5_0" index="0" speed="13.89" length="9.52" shape="326.68,1945.57 317.17,1945.94"/>
    </edge>
    <edge id=":42842822_6" function="internal">
        <lane id=":42842822_6_0" index="0" speed="13.89" length="10.33" shape="326.68,1945.57 323.86,1945.28 321.82,1944.16 320.54,1942.21 320.03,1939.42"/>
    </edge>
    <edge id=":42842822_7" function="internal">
        <lane id=":42842822_7_0" index="0" speed="13.89" length="4.82" shape="326.68,1945.57 325.41,1944.79 324.97,1943.99 325.35,1943.15 326.55,1942.27"/>
    </edge>
    <edge id=":42842822_8" function="internal">
        <lane id=":42842822_8_0" index="0" speed="13.89" length="5.00" shape="323.33,1939.29 323.58,1940.64 324.19,1941.59 325.19,1942.13 326.55,1942.27"/>
    </edge>
    <edge id=":42842822_9" function="internal">
        <lane id=":42842822_9_0" index="0" speed="13.89" length="9.51" shape="323.33,1939.29 323.68,1948.80"/>
    </edge>
    <edge id=":42842822_10" function="internal">
        <lane id=":42842822_10_0" index="0" speed="13.89" length="7.15" shape="323.33,1939.29 323.04,1942.11 321.91,1944.16 320.25,1945.24"/>
    </edge>
    <edge id=":42842822_11" function="internal">
        <lane id=":42842822_11_0" index="0" speed="13.89" length="2.41" shape="323.33,1939.29 322.55,1940.56 321.74,1941.01"/>
    </edge>
    <edge id=":42842822_18" function="internal">
        <lane id=":42842822_18_0" index="0" speed="13.89" length="3.18" shape="320.25,1945.24 319.96,1945.43 317.17,1945.94"/>
    </edge>
    <edge id=":42842822_19" function="internal">
        <lane id=":42842822_19_0" index="0" speed="13.89" length="2.41" shape="321.74,1941.01 320.90,1940.63 320.03,1939.42"/>
    </edge>
    <edge id=":42842822_12" function="internal">
        <lane id=":42842822_12_0" index="0" speed="13.89" length="5.00" shape="317.05,1942.64 318.40,1942.39 319.35,1941.78 319.89,1940.79 320.03,1939.42"/>
    </edge>
    <edge id=":42842822_13" function="internal">
        <lane id=":42842822_13_0" index="0" speed="13.89" length="9.51" shape="317.05,1942.64 326.55,1942.27"/>
    </edge>
    <edge id=":42842822_14" function="internal">
        <lane id=":42842822_14_0" index="0" speed="13.89" length="10.33" shape="317.05,1942.64 319.87,1942.94 321.91,1944.06 323.18,1946.02 323.68,1948.80"/>
    </edge>
    <edge id=":42842822_15" function="internal">
        <lane id=":42842822_15_0" index="0" speed="13.89" length="4.82" shape="317.05,1942.64 318.32,1943.42 318.76,1944.23 318.38,1945.07 317.17,1945.94"/>
    </edge>
    <edge id=":42842827_0" function="internal">
        <lane id=":42842827_0_0" index="0" speed="13.89" length="5.00" shape="398.00,1945.79 397.76,1944.44 397.14,1943.50 396.15,1942.95 394.79,1942.82"/>
    </edge>
    <edge id=":42842827_1" function="internal">
        <lane id=":42842827_1_0" index="0" speed="13.89" length="9.50" shape="398.00,1945.79 397.65,1936.30"/>
    </edge>
    <edge id=":42842827_2" function="internal">
        <lane id=":42842827_2_0" index="0" speed="13.89" length="7.85" shape="398.00,1945.79 398.10,1942.99 398.61,1940.97 399.53,1939.73 400.88,1939.29"/>
    </edge>
    <edge id=":42842827_3" function="internal">
        <lane id=":42842827_3_0" index="0" speed="13.89" length="6.21" shape="400.99,1942.58 394.79,1942.82"/>
    </edge>
    <edge id=":42842827_4" function="internal">
        <lane id=":42842827_4_0" index="0" speed="13.89" length="4.72" shape="400.99,1942.58 399.62,1942.23 398.61,1941.07 398.05,1939.39"/>
    </edge>
    <edge id=":42842827_5" function="internal">
        <lane id=":42842827_5_0" index="0" speed="13.89" length="2.41" shape="400.99,1942.58 399.73,1941.80 399.29,1940.99"/>
    </edge>
    <edge id=":42842827_9" function="internal">
        <lane id=":42842827_9_0" index="0" speed="13.89" length="3.13" shape="398.05,1939.39 397.95,1939.09 397.65,1936.30"/>
    </edge>
    <edge id=":42842827_10" function="internal">
        <lane id=":42842827_10_0" index="0" speed="13.89" length="2.41" shape="399.29,1940.99 399.67,1940.15 400.88,1939.29"/>
    </edge>
    <edge id=":42842827_6" function="internal">
        <lane id=":42842827_6_0" index="0" speed="13.89" length="5.01" shape="394.65,1939.52 396.01,1939.27 396.96,1938.65 397.51,1937.66 397.65,1936.30"/>
    </edge>
    <edge id=":42842827_7" function="internal">
        <lane id=":42842827_7_0" index="0" speed="13.89" length="6.23" shape="394.65,1939.52 400.88,1939.29"/>
    </edge>
    <edge id=":42842827_8" function="internal">
        <lane id=":42842827_8_0" index="0" speed="13.89" length="2.41" shape="394.65,1939.52 395.92,1940.29 396.37,1941.10"/>
    </edge>
    <edge id=":42842827_11" function="internal">
        <lane id=":42842827_11_0" index="0" speed="13.89" length="2.41" shape="396.37,1941.10 395.99,1941.94 394.79,1942.82"/>
    </edge>
    <edge id=":42842833_0" function="internal">
        <lane id=":42842833_0_0" index="0" speed="13.89" length="5.00" shape="550.10,1940.21 549.86,1938.86 549.24,1937.91 548.25,1937.37 546.89,1937.23"/>
    </edge>
    <edge id=":42842833_1" function="internal">
        <lane id=":42842833_1_0" index="0" speed="13.89" length="9.51" shape="550.10,1940.21 549.76,1930.71"/>
    </edge>
    <edge id=":42842833_2" function="internal">
        <lane id=":42842833_2_0" index="0" speed="13.89" length="7.85" shape="550.10,1940.21 550.19,1937.40 550.70,1935.38 551.63,1934.15 552.97,1933.70"/>
    </edge>
    <edge id=":42842833_3" function="internal">
        <lane id=":42842833_3_0" index="0" speed="13.89" length="6.21" shape="553.09,1937.00 546.89,1937.23"/>
    </edge>
    <edge id=":42842833_4" function="internal">
        <lane id=":42842833_4_0" index="0" speed="13.89" length="4.72" shape="553.09,1937.00 551.72,1936.65 550.71,1935.48 550.15,1933.81"/>
    </edge>
    <edge id=":42842833_5" function="internal">
        <lane id=":42842833_5_0" index="0" speed="13.89" length="2.41" shape="553.09,1937.00 551.82,1936.22 551.38,1935.41"/>
    </edge>
    <edge id=":42842833_9" function="internal">
        <lane id=":42842833_9_0" index="0" speed="13.89" length="3.13" shape="550.15,1933.81 550.06,1933.50 549.76,1930.71"/>
    </edge>
    <edge id=":42842833_10" function="internal">
        <lane id=":42842833_10_0" index="0" speed="13.89" length="2.41" shape="551.38,1935.41 551.76,1934.57 552.97,1933.70"/>
    </edge>
    <edge id=":42842833_6" function="internal">
        <lane id=":42842833_6_0" index="0" speed="13.89" length="5.02" shape="546.76,1933.93 548.11,1933.69 549.07,1933.07 549.62,1932.07 549.76,1930.71"/>
    </edge>
    <edge id=":42842833_7" function="internal">
        <lane id=":42842833_7_0" index="0" speed="13.89" length="6.22" shape="546.76,1933.93 552.97,1933.70"/>
    </edge>
    <edge id=":42842833_8" function="internal">
        <lane id=":42842833_8_0" index="0" speed="13.89" length="2.41" shape="546.76,1933.93 548.03,1934.71 548.47,1935.52"/>
    </edge>
    <edge id=":42842833_11" function="internal">
        <lane id=":42842833_11_0" index="0" speed="13.89" length="2.41" shape="548.47,1935.52 548.09,1936.36 546.89,1937.23"/>
    </edge>
    <edge id=":42842837_0" function="internal">
        <lane id=":42842837_0_0" index="0" speed="13.89" length="5.00" shape="624.59,1937.53 624.34,1936.19 623.73,1935.24 622.74,1934.69 621.37,1934.55"/>
    </edge>
    <edge id=":42842837_1" function="internal">
        <lane id=":42842837_1_0" index="0" speed="13.89" length="9.50" shape="624.59,1937.53 624.24,1928.04"/>
    </edge>
    <edge id=":42842837_2" function="internal">
        <lane id=":42842837_2_0" index="0" speed="13.89" length="7.14" shape="624.59,1937.53 624.88,1934.72 626.01,1932.68 627.67,1931.60"/>
    </edge>
    <edge id=":42842837_3" function="internal">
        <lane id=":42842837_3_0" index="0" speed="13.89" length="2.41" shape="624.59,1937.53 625.37,1936.27 626.17,1935.82"/>
    </edge>
    <edge id=":42842837_16" function="internal">
        <lane id=":42842837_16_0" index="0" speed="13.89" length="3.18" shape="627.67,1931.60 627.96,1931.41 630.75,1930.90"/>
    </edge>
    <edge id=":42842837_17" function="internal">
        <lane id=":42842837_17_0" index="0" speed="13.89" length="2.41" shape="626.17,1935.82 627.01,1936.21 627.88,1937.41"/>
    </edge>
    <edge id=":42842837_4" function="internal">
        <lane id=":42842837_4_0" index="0" speed="13.89" length="5.00" shape="630.87,1934.20 629.52,1934.44 628.57,1935.06 628.03,1936.05 627.88,1937.41"/>
    </edge>
    <edge id=":42842837_5" function="internal">
        <lane id=":42842837_5_0" index="0" speed="13.89" length="9.51" shape="630.87,1934.20 621.37,1934.55"/>
    </edge>
    <edge id=":42842837_6" function="internal">
        <lane id=":42842837_6_0" index="0" speed="13.89" length="10.33" shape="630.87,1934.20 628.06,1933.90 626.01,1932.78 624.74,1930.82 624.24,1928.04"/>
    </edge>
    <edge id=":42842837_7" function="internal">
        <lane id=":42842837_7_0" index="0" speed="13.89" length="4.82" shape="630.87,1934.20 629.60,1933.42 629.16,1932.61 629.54,1931.77 630.75,1930.90"/>
    </edge>
    <edge id=":42842837_8" function="internal">
        <lane id=":42842837_8_0" index="0" speed="13.89" length="5.00" shape="627.54,1927.92 627.78,1929.27 628.40,1930.21 629.39,1930.76 630.75,1930.90"/>
    </edge>
    <edge id=":42842837_9" function="internal">
        <lane id=":42842837_9_0" index="0" speed="13.89" length="9.50" shape="627.54,1927.92 627.88,1937.41"/>
    </edge>
    <edge id=":42842837_10" function="internal">
        <lane id=":42842837_10_0" index="0" speed="13.89" length="7.14" shape="627.54,1927.92 627.24,1930.73 626.11,1932.78 624.45,1933.85"/>
    </edge>
    <edge id=":42842837_11" function="internal">
        <lane id=":42842837_11_0" index="0" speed="13.89" length="2.41" shape="627.54,1927.92 626.76,1929.18 625.95,1929.63"/>
    </edge>
    <edge id=":42842837_18" function="internal">
        <lane id=":42842837_18_0" index="0" speed="13.89" length="3.18" shape="624.45,1933.85 624.16,1934.05 621.37,1934.55"/>
    </edge>
    <edge id=":42842837_19" function="internal">
        <lane id=":42842837_19_0" index="0" speed="13.89" length="2.41" shape="625.95,1929.63 625.11,1929.24 624.24,1928.04"/>
    </edge>
    <edge id=":42842837_12" function="internal">
        <lane id=":42842837_12_0" index="0" speed="13.89" length="5.00" shape="621.25,1931.25 622.60,1931.01 623.55,1930.39 624.09,1929.40 624.24,1928.04"/>
    </edge>
    <edge id=":42842837_13" function="internal">
        <lane id=":42842837_13_0" index="0" speed="13.89" length="9.50" shape="621.25,1931.25 630.75,1930.90"/>
    </edge>
    <edge id=":42842837_14" function="internal">
        <lane id=":42842837_14_0" index="0" speed="13.89" length="10.32" shape="621.25,1931.25 624.07,1931.55 626.11,1932.68 627.38,1934.63 627.88,1937.41"/>
    </edge>
    <edge id=":42842837_15" function="internal">
        <lane id=":42842837_15_0" index="0" speed="13.89" length="4.82" shape="621.25,1931.25 622.52,1932.03 622.96,1932.84 622.58,1933.68 621.37,1934.55"/>
    </edge>
    <edge id=":42842869_0" function="internal">
        <lane id=":42842869_0_0" index="0" speed="13.89" length="4.82" shape="1465.69,2129.25 1466.55,2130.46 1466.65,2131.38 1465.97,2132.00 1464.53,2132.34"/>
    </edge>
    <edge id=":42852846_0" function="internal">
        <lane id=":42852846_0_0" index="0" speed="13.89" length="4.82" shape="260.00,2302.81 259.22,2304.07 258.41,2304.52 257.57,2304.13 256.70,2302.92"/>
    </edge>
    <edge id=":42852852_0" function="internal">
        <lane id=":42852852_0_0" index="0" speed="13.89" length="5.00" shape="236.48,1747.38 236.24,1746.03 235.62,1745.08 234.63,1744.53 233.27,1744.39"/>
    </edge>
    <edge id=":42852852_1" function="internal">
        <lane id=":42852852_1_0" index="0" speed="13.89" length="9.50" shape="236.48,1747.38 236.14,1737.88"/>
    </edge>
    <edge id=":42852852_2" function="internal">
        <lane id=":42852852_2_0" index="0" speed="13.89" length="10.34" shape="236.48,1747.38 236.78,1744.56 237.91,1742.51 239.87,1741.25 242.66,1740.75"/>
    </edge>
    <edge id=":42852852_3" function="internal">
        <lane id=":42852852_3_0" index="0" speed="13.89" length="4.82" shape="236.48,1747.38 237.26,1746.11 238.07,1745.67 238.91,1746.05 239.78,1747.26"/>
    </edge>
    <edge id=":42852852_4" function="internal">
        <lane id=":42852852_4_0" index="0" speed="13.89" length="5.00" shape="242.77,1744.05 241.42,1744.29 240.47,1744.90 239.93,1745.89 239.78,1747.26"/>
    </edge>
    <edge id=":42852852_5" function="internal">
        <lane id=":42852852_5_0" index="0" speed="13.89" length="9.51" shape="242.77,1744.05 233.27,1744.39"/>
    </edge>
    <edge id=":42852852_6" function="internal">
        <lane id=":42852852_6_0" index="0" speed="13.89" length="7.14" shape="242.77,1744.05 239.96,1743.74 237.91,1742.61 236.84,1740.96"/>
    </edge>
    <edge id=":42852852_7" function="internal">
        <lane id=":42852852_7_0" index="0" speed="13.89" length="2.41" shape="242.77,1744.05 241.51,1743.27 241.07,1742.46"/>
    </edge>
    <edge id=":42852852_16" function="internal">
        <lane id=":42852852_16_0" index="0" speed="13.89" length="3.19" shape="236.84,1740.96 236.64,1740.66 236.14,1737.88"/>
    </edge>
    <edge id=":42852852_17" function="internal">
        <lane id=":42852852_17_0" index="0" speed="13.89" length="2.41" shape="241.07,1742.46 241.45,1741.62 242.66,1740.75"/>
    </edge>
    <edge id=":42852852_8" function="internal">
        <lane id=":42852852_8_0" index="0" speed="13.89" length="5.02" shape="239.43,1737.76 239.68,1739.11 240.30,1740.06 241.29,1740.60 242.66,1740.75"/>
    </edge>
    <edge id=":42852852_9" function="internal">
        <lane id=":42852852_9_0" index="0" speed="13.89" length="9.51" shape="239.43,1737.76 239.78,1747.26"/>
    </edge>
    <edge id=":42852852_10" function="internal">
        <lane id=":42852852_10_0" index="0" speed="13.89" length="10.33" shape="239.43,1737.76 239.14,1740.57 238.01,1742.61 236.05,1743.88 233.27,1744.39"/>
    </edge>
    <edge id=":42852852_11" function="internal">
        <lane id=":42852852_11_0" index="0" speed="13.89" length="4.82" shape="239.43,1737.76 238.65,1739.02 237.85,1739.47 237.01,1739.09 236.14,1737.88"/>
    </edge>
    <edge id=":42852852_12" function="internal">
        <lane id=":42852852_12_0" index="0" speed="13.89" length="5.01" shape="233.14,1741.10 234.49,1740.85 235.44,1740.23 235.99,1739.24 236.14,1737.88"/>
    </edge>
    <edge id=":42852852_13" function="internal">
        <lane id=":42852852_13_0" index="0" speed="13.89" length="9.53" shape="233.14,1741.10 242.66,1740.75"/>
    </edge>
    <edge id=":42852852_14" function="internal">
        <lane id=":42852852_14_0" index="0" speed="13.89" length="7.16" shape="233.14,1741.10 235.96,1741.39 238.00,1742.51 239.09,1744.18"/>
    </edge>
    <edge id=":42852852_15" function="internal">
        <lane id=":42852852_15_0" index="0" speed="13.89" length="2.41" shape="233.14,1741.10 234.41,1741.87 234.85,1742.68"/>
    </edge>
    <edge id=":42852852_18" function="internal">
        <lane id=":42852852_18_0" index="0" speed="13.89" length="3.17" shape="239.09,1744.18 239.28,1744.47 239.78,1747.26"/>
    </edge>
    <edge id=":42852852_19" function="internal">
        <lane id=":42852852_19_0" index="0" speed="13.89" length="2.41" shape="234.85,1742.68 234.47,1743.52 233.27,1744.39"/>
    </edge>
    <edge id=":42861677_0" function="internal">
        <lane id=":42861677_0_0" index="0" speed="13.89" length="9.49" shape="545.74,1813.69 545.38,1804.21"/>
    </edge>
    <edge id=":42861677_1" function="internal">
        <lane id=":42861677_1_0" index="0" speed="13.89" length="7.85" shape="545.74,1813.69 545.84,1810.88 546.35,1808.86 547.28,1807.63 548.63,1807.19"/>
    </edge>
    <edge id=":42861677_2" function="internal">
        <lane id=":42861677_2_0" index="0" speed="13.89" length="2.96" shape="548.74,1810.49 547.37,1810.13 546.35,1808.97"/>
    </edge>
    <edge id=":42861677_3" function="internal">
        <lane id=":42861677_3_0" index="0" speed="13.89" length="2.41" shape="548.74,1810.49 547.47,1809.70 547.03,1808.89"/>
    </edge>
    <edge id=":42861677_4" function="internal">
        <lane id=":42861677_4_0" index="0" speed="13.89" length="4.89" shape="546.35,1808.97 545.69,1806.99 545.38,1804.21"/>
    </edge>
    <edge id=":42861677_5" function="internal">
        <lane id=":42861677_5_0" index="0" speed="13.89" length="2.41" shape="547.03,1808.89 547.42,1808.05 548.63,1807.19"/>
    </edge>
    <edge id=":42861679_0" function="internal">
        <lane id=":42861679_0_0" index="0" speed="13.89" length="5.02" shape="619.98,1811.22 619.74,1809.87 619.12,1808.93 618.12,1808.38 616.75,1808.23"/>
    </edge>
    <edge id=":42861679_1" function="internal">
        <lane id=":42861679_1_0" index="0" speed="13.89" length="9.50" shape="619.98,1811.22 619.63,1801.73"/>
    </edge>
    <edge id=":42861679_2" function="internal">
        <lane id=":42861679_2_0" index="0" speed="13.89" length="2.41" shape="619.98,1811.22 620.76,1809.95 621.57,1809.51"/>
    </edge>
    <edge id=":42861679_9" function="internal">
        <lane id=":42861679_9_0" index="0" speed="13.89" length="2.41" shape="621.57,1809.51 622.41,1809.89 623.28,1811.10"/>
    </edge>
    <edge id=":42861679_3" function="internal">
        <lane id=":42861679_3_0" index="0" speed="13.89" length="9.51" shape="622.93,1801.60 623.28,1811.10"/>
    </edge>
    <edge id=":42861679_4" function="internal">
        <lane id=":42861679_4_0" index="0" speed="13.89" length="7.15" shape="622.93,1801.60 622.63,1804.42 621.50,1806.47 619.84,1807.54"/>
    </edge>
    <edge id=":42861679_5" function="internal">
        <lane id=":42861679_5_0" index="0" speed="13.89" length="2.41" shape="622.93,1801.60 622.15,1802.87 621.34,1803.31"/>
    </edge>
    <edge id=":42861679_10" function="internal">