<?xml version="1.0" encoding="UTF-8"?>

<!-- generated on Wed Nov 19 06:59:32 2014 by SUMO polyconvert Version 0.19.0
<?xml version="1.0" encoding="UTF-8"?>

<configuration xmlns:xsi="http://www.w3.org/2001/XMLSchema-instance" xsi:noNamespaceSchemaLocation="http://sumo-sim.org/xsd/polyconvertConfiguration.xsd">

    <input>
        <net-file value="manhattan.net.xml"/>
        <osm-files value="manhattan.osm"/>
        <type-file value="typemap.xml"/>
    </input>

    <output>
        <output-file value="manhattan.poly.xml"/>
    </output>

</configuration>
-->

<shapes>
    <poly id="248503459" type="building" color="255,230,230" fill="1" layer="2.00" shape="279.50,1709.33 271.44,1709.62 272.01,1724.94 280.07,1724.64 279.50,1709.33"/>
    <poly id="248503461" type="building" color="255,230,230" fill="1" layer="2.00" shape="291.75,1709.06 283.50,1709.34 284.01,1724.29 292.26,1724.01 291.75,1709.06"/>
    <poly id="248503464" type="building" color="255,230,230" fill="1" layer="2.00" shape="302.48,1708.53 294.32,1708.74 294.73,1724.14 302.88,1723.92 302.52,1710.24 302.48,1708.53"/>
    <poly id="248503466" type="building" color="255,230,230" fill="1" layer="2.00" shape="255.05,1709.45 246.91,1709.81 247.60,1725.68 255.73,1725.33 255.05,1709.45"/>
    <poly id="248503469" type="building" color="255,230,230" fill="1" layer="2.00" shape="262.38,1725.08 267.83,1724.90 267.33,1709.83 259.30,1710.09 259.79,1725.31 260.10,1725.31 260.14,1726.40 262.42,1726.33 262.38,1725.08"/>
    <poly id="248503471" type="building" color="255,230,230" fill="1" layer="2.00" shape="357.48,1754.89 349.37,1755.11 349.78,1770.54 357.89,1770.32 357.48,1754.89"/>
    <poly id="248503473" type="building" color="255,230,230" fill="1" layer="2.00" shape="359.40,1925.93 361.50,1925.82 360.77,1911.09 353.77,1911.44 354.49,1926.17 356.45,1926.08 356.53,1927.63 359.48,1927.48 359.40,1925.93"/>
    <poly id="248503474" type="building" color="255,230,230" fill="1" layer="2.00" shape="354.75,1706.83 345.64,1707.06 346.02,1722.37 355.14,1722.15 354.75,1706.83"/>
    <poly id="248503476" type="building" color="255,230,230" fill="1" layer="2.00" shape="369.67,1754.63 361.60,1754.90 362.09,1769.97 370.18,1769.70 369.67,1754.63"/>
    <poly id="248503479" type="building" color="255,230,230" fill="1" layer="2.00" shape="371.53,1925.40 373.86,1925.33 373.38,1912.00 370.02,1912.12 369.97,1910.55 366.49,1910.68 366.63,1914.69 366.03,1914.71 366.43,1925.68 368.62,1925.60 368.67,1926.98 371.59,1926.86 371.53,1925.40"/>
    <poly id="248503480" type="building" color="255,230,230" fill="1" layer="2.00" shape="366.59,1706.31 357.91,1706.61 358.44,1721.60 367.11,1721.30 366.97,1717.16 366.59,1706.31"/>
    <poly id="248503481" type="building" color="255,230,230" fill="1" layer="2.00" shape="380.32,1754.04 372.25,1754.31 372.79,1769.84 380.85,1769.56 380.32,1754.04"/>
    <poly id="248503484" type="building" color="255,230,230" fill="1" layer="2.00" shape="378.51,1705.55 370.34,1705.86 370.29,1704.55 369.01,1704.60 369.15,1708.30 370.41,1708.25 370.89,1721.05 379.09,1720.74 378.51,1705.55"/>
    <poly id="248503487" type="building" color="255,230,230" fill="1" layer="2.00" shape="338.64,1913.83 330.98,1914.16 331.53,1926.79 336.90,1926.56 336.85,1925.59 339.15,1925.48 338.64,1913.83"/>
    <poly id="248503488" type="building" color="255,230,230" fill="1" layer="2.00" shape="331.17,1710.40 323.69,1710.63 324.07,1722.81 331.57,1722.58 331.17,1710.40"/>
    <poly id="248503490" type="building" color="255,230,230" fill="1" layer="2.00" shape="345.16,1755.63 336.91,1756.01 337.61,1770.94 345.86,1770.56 345.16,1755.63"/>
    <poly id="248503493" type="building" color="255,230,230" fill="1" layer="2.00" shape="349.04,1915.69 341.69,1915.99 342.11,1926.63 349.47,1926.34 349.04,1915.69"/>
    <poly id="248503494" type="building" color="255,230,230" fill="1" layer="2.00" shape="343.09,1710.01 335.60,1710.36 336.18,1722.52 343.66,1722.15 343.09,1710.01"/>
    <poly id="248503495" type="building" color="255,230,230" fill="1" layer="2.00" shape="433.88,1751.95 424.77,1752.26 425.26,1766.52 434.37,1766.22 434.27,1763.50 433.88,1751.95"/>
    <poly id="248503496" type="building" color="255,230,230" fill="1" layer="2.00" shape="437.98,1718.51 438.42,1718.51 438.36,1712.30 438.32,1708.18 437.87,1708.18 437.83,1705.07 429.76,1705.16 429.90,1718.93 430.25,1718.93 430.28,1722.17 438.02,1722.09 437.98,1718.51"/>
    <poly id="248503497" type="building" color="255,230,230" fill="1" layer="2.00" shape="446.98,1909.17 435.44,1909.51 435.88,1923.73 440.67,1923.58 440.62,1921.73 447.35,1921.53 446.98,1909.17"/>
    <poly id="248503498" type="building" color="255,230,230" fill="1" layer="2.00" shape="446.22,1751.54 437.23,1751.79 437.60,1765.90 446.60,1765.67 446.22,1751.54"/>
    <poly id="248503499" type="building" color="255,230,230" fill="1" layer="2.00" shape="459.38,1907.84 451.94,1908.17 452.39,1918.20 450.92,1918.27 451.04,1920.78 456.99,1920.52 456.96,1919.84 459.92,1919.71 459.38,1907.84"/>
    <poly id="248503500" type="building" color="255,230,230" fill="1" layer="2.00" shape="456.40,1751.26 448.36,1751.50 448.84,1768.09 456.87,1767.86 456.40,1751.26"/>
    <poly id="248503501" type="building" color="255,230,230" fill="1" layer="2.00" shape="409.30,1752.82 400.94,1753.13 401.05,1756.02 399.00,1756.11 399.18,1760.82 401.14,1760.74 401.38,1767.11 409.83,1766.78 409.30,1752.82"/>
    <poly id="248503502" type="building" color="255,230,230" fill="1" layer="2.00" shape="418.02,1898.09 408.17,1898.33 408.35,1906.06 408.91,1906.04 409.31,1922.47 417.23,1922.28 416.91,1908.35 418.26,1908.31 418.02,1898.09"/>
    <poly id="248503503" type="building" color="255,230,230" fill="1" layer="2.00" shape="409.44,1705.28 400.44,1705.57 400.95,1720.55 409.96,1720.24 409.48,1706.40 409.44,1705.28"/>
    <poly id="248503504" type="building" color="255,230,230" fill="1" layer="2.00" shape="421.50,1752.38 412.50,1752.68 413.01,1767.87 422.01,1767.56 421.50,1752.38"/>
    <poly id="248503506" type="building" color="255,230,230" fill="1" layer="2.00" shape="432.06,1908.59 429.08,1908.70 428.96,1905.40 423.77,1905.60 423.88,1908.74 423.42,1908.76 423.97,1923.23 432.61,1922.91 432.06,1908.59"/>
    <poly id="248503507" type="building" color="255,230,230" fill="1" layer="2.00" shape="425.77,1705.22 416.89,1705.47 417.31,1719.69 426.19,1719.44 425.77,1705.22"/>
    <poly id="248503508" type="building" color="255,230,230" fill="1" layer="2.00" shape="502.32,1702.16 493.40,1702.46 493.94,1718.02 502.85,1717.71 502.69,1713.15 502.32,1702.16"/>
    <poly id="248503509" type="building" color="255,230,230" fill="1" layer="2.00" shape="521.41,1909.23 520.77,1909.28 520.51,1905.09 515.13,1905.43 515.39,1909.32 514.29,1909.38 514.55,1913.53 512.57,1913.65 512.85,1918.12 521.93,1917.56 521.41,1909.23"/>
    <poly id="248503510" type="building" color="255,230,230" fill="1" layer="2.00" shape="514.55,1715.33 517.45,1715.19 516.84,1701.99 507.91,1702.40 508.54,1716.12 509.96,1716.06 509.98,1716.72 511.13,1716.67 511.16,1717.38 514.64,1717.22 514.55,1715.33"/>
    <poly id="248503511" type="building" color="255,230,230" fill="1" layer="2.00" shape="521.98,1749.30 513.42,1749.63 513.38,1748.64 505.84,1748.94 506.33,1761.70 522.43,1761.08 522.11,1752.63 521.98,1749.30"/>
    <poly id="248503512" type="building" color="255,230,230" fill="1" layer="2.00" shape="531.55,1701.50 522.40,1701.92 523.10,1716.89 532.25,1716.46 531.63,1703.36 531.55,1701.50"/>
    <poly id="248503513" type="building" color="255,230,230" fill="1" layer="2.00" shape="484.40,1701.15 476.13,1701.63 477.15,1718.88 485.41,1718.39 484.58,1704.25 484.40,1701.15"/>
    <poly id="248503515" type="building" color="255,230,230" fill="1" layer="2.00" shape="509.30,1900.65 504.59,1900.78 504.66,1903.43 500.61,1903.54 501.05,1920.67 509.81,1920.44 509.38,1904.07 509.30,1900.65"/>
    <poly id="248503516" type="building" color="255,230,230" fill="1" layer="2.00" shape="589.77,1747.31 581.22,1747.63 581.80,1762.83 590.34,1762.51 589.77,1747.31"/>
    <poly id="248503517" type="building" color="255,230,230" fill="1" layer="2.00" shape="583.07,1699.30 581.62,1699.37 581.48,1696.35 575.85,1696.60 575.99,1699.51 574.37,1699.59 575.08,1715.01 583.77,1714.62 583.07,1699.30"/>
    <poly id="248503518" type="building" color="255,230,230" fill="1" layer="2.00" shape="594.45,1913.44 600.93,1913.21 600.63,1904.87 598.10,1904.97 598.03,1902.88 592.12,1903.10 592.19,1905.13 589.51,1905.23 589.63,1908.46 586.85,1908.56 587.08,1915.23 589.49,1915.14 589.52,1915.92 594.54,1915.73 594.45,1913.44"/>
    <poly id="248503519" type="building" color="255,230,230" fill="1" layer="2.00" shape="591.97,1780.43 583.01,1780.76 583.53,1795.19 592.50,1794.86 591.97,1780.43"/>
    <poly id="248503522" type="building" color="255,230,230" fill="1" layer="2.00" shape="605.76,1745.63 596.48,1746.01 597.12,1762.16 606.40,1761.79 605.76,1745.63"/>
    <poly id="248503523" type="building" color="255,230,230" fill="1" layer="2.00" shape="614.27,1904.51 603.04,1905.02 603.41,1913.01 609.74,1912.72 609.86,1915.24 614.75,1915.02 614.27,1904.51"/>
    <poly id="248503524" type="building" color="255,230,230" fill="1" layer="2.00" shape="607.12,1779.35 597.67,1779.61 598.11,1795.60 607.55,1795.35 607.13,1779.79 607.12,1779.35"/>
    <poly id="248503526" type="building" color="255,230,230" fill="1" layer="2.00" shape="578.63,1821.74 574.47,1821.87 574.40,1819.75 567.92,1819.97 568.01,1822.65 558.80,1822.95 559.10,1832.09 574.89,1831.56 574.80,1828.82 578.86,1828.69 578.63,1821.74"/>
    <poly id="248503529" type="building" color="255,230,230" fill="1" layer="2.00" shape="564.69,1747.51 561.33,1747.67 561.37,1748.70 556.31,1748.94 557.07,1764.65 565.49,1764.25 564.96,1753.19 564.69,1747.51"/>
    <poly id="248503532" type="building" color="255,230,230" fill="1" layer="2.00" shape="572.75,1793.29 576.25,1793.15 575.95,1786.25 572.31,1786.40 572.24,1784.58 557.19,1785.20 557.55,1793.75 566.61,1793.37 566.71,1795.83 572.84,1795.58 572.75,1793.29"/>
    <poly id="248503533" type="building" color="255,230,230" fill="1" layer="2.00" shape="580.16,1762.49 576.88,1762.60 576.36,1747.62 568.00,1747.90 568.52,1763.13 575.56,1762.88 575.80,1770.04 580.41,1769.88 580.16,1762.49"/>
    <poly id="248503534" type="building" color="255,230,230" fill="1" layer="2.00" shape="570.87,1699.71 562.15,1700.01 562.70,1715.41 571.42,1715.10 570.87,1699.71"/>
    <poly id="248503587" type="building" color="255,230,230" fill="1" layer="2.00" shape="420.47,1886.96 409.19,1887.36 409.47,1895.26 420.76,1894.86 420.47,1886.96"/>
    <poly id="248503588" type="building" color="255,230,230" fill="1" layer="2.00" shape="501.14,1883.61 491.02,1883.95 491.02,1883.73 485.62,1883.91 485.63,1884.16 484.89,1884.20 484.98,1886.79 485.45,1886.76 485.69,1893.63 501.47,1893.08 501.14,1883.61"/>
    <poly id="248503589" type="building" color="255,230,230" fill="1" layer="2.00" shape="575.79,1898.43 575.53,1889.71 561.74,1890.12 562.00,1898.84 575.79,1898.43"/>
    <poly id="248503593" type="building" color="255,230,230" fill="1" layer="2.00" shape="381.40,1892.42 380.03,1892.47 379.95,1890.36 369.12,1890.77 369.41,1898.22 380.25,1897.80 380.17,1895.38 381.51,1895.33 381.40,1892.42"/>
    <poly id="248503595" type="building" color="255,230,230" fill="1" layer="2.00" shape="458.29,1886.48 442.07,1887.15 442.43,1895.77 458.65,1895.10 458.36,1888.13 458.29,1886.48"/>
    <poly id="248503596" type="building" color="255,230,230" fill="1" layer="2.00" shape="532.34,1888.32 531.38,1888.36 531.22,1884.44 521.75,1884.83 522.09,1893.14 531.46,1892.76 531.42,1891.86 532.49,1891.81 532.34,1888.32"/>
    <poly id="248503597" type="building" color="255,230,230" fill="1" layer="2.00" shape="610.60,1877.68 604.93,1877.89 605.01,1879.88 595.34,1880.23 595.69,1889.68 611.03,1889.11 610.60,1877.68"/>
    <poly id="248503600" type="building" color="255,230,230" fill="1" layer="2.00" shape="343.12,1888.07 332.80,1888.55 333.30,1899.50 343.63,1899.02 343.12,1888.07"/>
    <poly id="248503601" type="building" color="255,230,230" fill="1" layer="2.00" shape="577.29,1883.87 577.25,1883.07 579.58,1882.94 579.34,1878.54 577.19,1878.66 576.96,1874.50 560.80,1875.41 561.30,1884.39 566.40,1884.10 566.43,1884.48 577.29,1883.87"/>
    <poly id="248503604" type="building" color="255,230,230" fill="1" layer="2.00" shape="379.38,1880.92 380.19,1880.89 380.05,1877.46 369.21,1877.87 369.49,1885.35 377.17,1885.06 377.23,1886.49 379.60,1886.39 379.38,1880.92"/>
    <poly id="248503606" type="building" color="255,230,230" fill="1" layer="2.00" shape="419.77,1874.82 409.05,1875.10 409.11,1877.43 407.77,1877.47 407.85,1880.37 409.22,1880.33 409.28,1882.52 413.82,1882.40 413.85,1883.54 419.99,1883.38 419.77,1874.82"/>
    <poly id="248503607" type="building" color="255,230,230" fill="1" layer="2.00" shape="500.47,1868.36 484.47,1869.06 484.58,1871.70 484.79,1871.69 485.10,1878.45 500.89,1877.75 500.47,1868.36"/>
    <poly id="248503609" type="building" color="255,230,230" fill="1" layer="2.00" shape="458.03,1874.23 441.75,1874.91 442.11,1883.38 458.39,1882.69 458.03,1874.23"/>
    <poly id="248503610" type="building" color="255,230,230" fill="1" layer="2.00" shape="533.63,1870.57 518.03,1871.00 518.25,1878.95 533.85,1878.50 533.63,1870.57"/>
    <poly id="248503614" type="building" color="255,230,230" fill="1" layer="2.00" shape="342.57,1883.67 342.59,1883.93 348.03,1883.69 347.70,1876.02 345.04,1876.12 345.01,1875.38 343.16,1875.46 343.18,1876.13 342.66,1876.16 342.51,1872.78 332.23,1873.23 332.70,1884.10 342.57,1883.67"/>
    <poly id="248503615" type="building" color="255,230,230" fill="1" layer="2.00" shape="578.28,1862.67 561.35,1863.35 561.74,1872.85 578.66,1872.17 578.28,1862.67"/>
    <poly id="248503618" type="building" color="255,230,230" fill="1" layer="2.00" shape="382.31,1865.52 368.11,1865.89 368.32,1873.95 381.99,1873.59 381.92,1871.22 382.46,1871.21 382.31,1865.52"/>
    <poly id="248503620" type="building" color="255,230,230" fill="1" layer="2.00" shape="610.23,1864.36 594.20,1864.93 594.54,1874.49 609.82,1873.95 609.63,1868.57 610.38,1868.55 610.30,1866.33 610.23,1864.36"/>
    <poly id="248503626" type="building" color="255,230,230" fill="1" layer="2.00" shape="416.75,1865.16 413.77,1865.22 413.75,1864.18 412.64,1864.20 412.61,1862.46 407.17,1862.58 407.29,1868.07 409.01,1868.04 409.10,1872.04 416.90,1871.86 416.75,1865.16"/>
    <poly id="248503630" type="building" color="255,230,230" fill="1" layer="2.00" shape="457.43,1862.15 440.78,1862.76 441.09,1871.28 457.74,1870.67 457.43,1862.15"/>
    <poly id="248503631" type="building" color="255,230,230" fill="1" layer="2.00" shape="533.38,1860.41 531.99,1860.46 531.91,1858.36 521.13,1858.73 521.40,1866.68 533.58,1866.25 533.43,1861.97 533.38,1860.41"/>
    <poly id="248503634" type="building" color="255,230,230" fill="1" layer="2.00" shape="346.27,1867.15 347.24,1867.12 346.97,1859.01 331.87,1859.52 332.02,1863.90 330.74,1863.94 330.87,1867.70 338.69,1867.43 338.70,1867.85 346.28,1867.60 346.27,1867.15"/>
    <poly id="248503635" type="building" color="255,230,230" fill="1" layer="2.00" shape="500.61,1857.49 496.47,1857.64 496.17,1849.24 485.45,1849.64 485.65,1855.00 487.92,1854.90 488.05,1858.11 487.09,1858.16 487.23,1861.80 500.75,1861.30 500.61,1857.49"/>
    <poly id="248503636" type="building" color="255,230,230" fill="1" layer="2.00" shape="576.27,1850.20 560.59,1850.74 560.91,1860.13 576.60,1859.59 576.27,1850.20"/>
    <poly id="248503639" type="building" color="255,230,230" fill="1" layer="2.00" shape="379.70,1853.78 367.01,1854.22 367.27,1861.72 378.66,1861.32 378.59,1859.44 379.90,1859.40 379.70,1853.78"/>
    <poly id="248503640" type="building" color="255,230,230" fill="1" layer="2.00" shape="609.67,1847.20 603.88,1847.34 603.93,1849.33 594.37,1849.58 594.61,1859.12 609.96,1858.73 609.67,1847.20"/>
    <poly id="248503643" type="building" color="255,230,230" fill="1" layer="2.00" shape="418.84,1852.28 408.26,1852.55 408.32,1854.90 406.88,1854.94 406.95,1857.84 408.43,1857.80 408.49,1859.90 419.02,1859.64 418.84,1852.28"/>
    <poly id="248503644" type="building" color="255,230,230" fill="1" layer="2.00" shape="457.12,1849.61 441.16,1850.28 441.54,1859.22 457.49,1858.55 457.12,1849.61"/>
    <poly id="248503645" type="building" color="255,230,230" fill="1" layer="2.00" shape="532.99,1842.56 524.31,1843.00 524.97,1856.06 533.64,1855.62 532.99,1842.56"/>
    <poly id="248503647" type="building" color="255,230,230" fill="1" layer="2.00" shape="348.51,1848.00 346.28,1848.12 346.23,1847.17 331.64,1847.91 330.65,1850.12 330.80,1853.09 331.92,1855.18 346.65,1854.44 346.53,1852.04 348.71,1851.92 348.51,1848.00"/>
    <poly id="248503648" type="building" color="255,230,230" fill="1" layer="2.00" shape="575.77,1836.91 560.19,1837.53 560.56,1846.74 576.14,1846.12 575.77,1836.91"/>
    <poly id="248503651" type="building" color="255,230,230" fill="1" layer="2.00" shape="366.37,1849.66 379.59,1849.42 379.44,1841.20 366.29,1841.43 366.34,1844.48 366.37,1849.66"/>
    <poly id="248503653" type="building" color="255,230,230" fill="1" layer="2.00" shape="405.81,1840.24 406.14,1848.00 419.85,1847.40 419.93,1849.26 423.82,1849.09 423.40,1839.49 412.74,1839.95 405.81,1840.24"/>
    <poly id="248503654" type="building" color="255,230,230" fill="1" layer="2.00" shape="485.96,1836.69 486.27,1844.63 501.64,1844.02 501.30,1835.55 490.22,1835.98 490.09,1832.88 483.41,1833.15 483.56,1836.79 485.96,1836.69"/>
    <poly id="248503655" type="building" color="255,230,230" fill="1" layer="2.00" shape="576.29,1911.96 563.40,1912.44 563.61,1918.14 564.86,1918.09 564.94,1920.17 576.58,1919.74 576.29,1911.96"/>
    <poly id="248503658" type="building" color="255,230,230" fill="1" layer="2.00" shape="456.62,1837.63 440.54,1838.21 440.85,1846.96 456.93,1846.39 456.62,1837.63"/>
    <poly id="248503659" type="building" color="255,230,230" fill="1" layer="2.00" shape="608.72,1831.87 603.28,1831.92 603.30,1833.91 594.14,1834.02 594.25,1843.41 605.84,1843.27 605.83,1842.56 608.60,1842.52 608.51,1834.19 608.75,1834.19 608.72,1831.87"/>
    <poly id="248503662" type="building" color="255,230,230" fill="1" layer="2.00" shape="345.79,1834.66 332.77,1835.12 332.92,1839.63 331.41,1839.69 331.53,1843.13 346.06,1842.63 345.79,1834.66"/>
    <poly id="248503663" type="building" color="255,230,230" fill="1" layer="2.00" shape="382.18,1832.47 381.22,1832.52 381.08,1828.74 365.76,1829.32 366.08,1837.81 381.28,1837.23 381.25,1836.47 382.33,1836.43 382.18,1832.47"/>
    <poly id="248503664" type="building" color="255,230,230" fill="1" layer="2.00" shape="532.77,1829.91 531.63,1829.97 531.34,1822.79 519.16,1823.30 519.42,1829.62 521.57,1829.54 521.93,1838.23 533.10,1837.77 532.88,1832.49 532.77,1829.91"/>
    <poly id="248503665" type="building" color="255,230,230" fill="1" layer="2.00" shape="419.16,1827.34 408.18,1827.71 408.20,1828.19 407.05,1828.23 407.24,1833.59 408.45,1833.56 408.53,1835.84 419.44,1835.47 419.16,1827.34"/>
    <poly id="248503666" type="building" color="255,230,230" fill="1" layer="2.00" shape="501.39,1820.95 498.30,1821.07 498.29,1820.71 493.62,1820.90 493.58,1819.81 490.98,1819.92 490.99,1820.43 489.93,1820.47 489.83,1818.20 483.20,1818.47 483.34,1821.82 484.30,1821.78 484.44,1824.98 485.10,1824.95 485.31,1829.87 501.74,1829.20 501.39,1820.95"/>
    <poly id="248503668" type="building" color="255,230,230" fill="1" layer="2.00" shape="456.25,1825.45 439.98,1826.04 440.30,1834.82 456.57,1834.24 456.25,1825.45"/>
    <poly id="248503669" type="building" color="255,230,230" fill="1" layer="2.00" shape="608.58,1828.11 608.34,1822.17 609.59,1822.12 609.44,1818.53 592.75,1819.22 592.86,1822.09 586.64,1822.35 586.90,1828.49 592.94,1828.24 592.96,1828.75 608.58,1828.11"/>
    <poly id="248503671" type="building" color="255,230,230" fill="1" layer="2.00" shape="344.71,1822.70 330.72,1823.10 330.95,1830.93 342.56,1830.59 342.48,1827.61 344.84,1827.55 344.79,1825.57 344.71,1822.70"/>
    <poly id="248503673" type="building" color="255,230,230" fill="1" layer="2.00" shape="378.41,1809.27 367.01,1809.66 367.28,1817.70 366.57,1817.73 366.80,1824.69 376.90,1824.35 376.55,1814.11 378.58,1814.04 378.41,1809.27"/>
    <poly id="248503674" type="building" color="255,230,230" fill="1" layer="2.00" shape="421.56,1814.90 404.68,1815.39 404.93,1823.98 421.81,1823.49 421.56,1814.90"/>
    <poly id="248503676" type="building" color="255,230,230" fill="1" layer="2.00" shape="455.70,1813.41 439.51,1813.99 439.83,1822.60 456.02,1822.03 455.79,1815.84 455.70,1813.41"/>
    <poly id="248503677" type="building" color="255,230,230" fill="1" layer="2.00" shape="531.82,1810.06 532.91,1810.02 532.78,1806.62 530.08,1806.73 529.86,1800.50 513.99,1801.09 514.38,1811.37 514.89,1811.34 515.08,1816.45 532.03,1815.82 531.82,1810.06"/>
    <poly id="248503679" type="building" color="255,230,230" fill="1" layer="2.00" shape="341.32,1814.17 339.97,1814.23 339.79,1810.32 330.07,1810.76 330.44,1819.12 341.52,1818.63 341.32,1814.17"/>
    <poly id="248503680" type="building" color="255,230,230" fill="1" layer="2.00" shape="503.71,1809.92 500.76,1810.05 500.57,1805.70 488.68,1806.22 488.57,1803.68 482.52,1803.95 482.65,1806.99 484.45,1806.91 484.81,1815.18 503.91,1814.35 503.77,1811.20 503.71,1809.92"/>
    <poly id="248503684" type="building" color="255,230,230" fill="1" layer="2.00" shape="419.06,1803.01 414.22,1803.19 414.19,1802.38 408.53,1802.59 408.56,1803.37 405.21,1803.50 405.49,1811.36 419.35,1810.84 419.06,1803.01"/>
    <poly id="248503685" type="building" color="255,230,230" fill="1" layer="2.00" shape="455.17,1801.17 439.15,1801.64 439.40,1810.36 455.42,1809.89 455.18,1801.29 455.17,1801.17"/>
    <poly id="248503686" type="building" color="255,230,230" fill="1" layer="2.00" shape="342.76,1797.76 329.38,1798.23 329.70,1807.23 343.08,1806.76 342.76,1797.76"/>
    <poly id="248503687" type="building" color="255,230,230" fill="1" layer="2.00" shape="500.23,1791.21 488.16,1791.59 488.07,1788.69 481.92,1788.88 482.03,1792.36 484.13,1792.29 484.39,1800.27 500.50,1799.76 500.44,1797.91 500.23,1791.21"/>
    <poly id="248503689" type="building" color="255,230,230" fill="1" layer="2.00" shape="371.78,1806.12 371.81,1806.70 380.67,1806.36 380.20,1794.20 354.21,1795.19 354.71,1808.62 358.47,1808.47 358.40,1806.62 369.74,1806.19 371.78,1806.12"/>
    <poly id="248503690" type="building" color="255,230,230" fill="1" layer="2.00" shape="530.96,1794.05 529.43,1794.10 529.35,1792.06 528.94,1792.08 528.71,1785.41 513.22,1785.94 513.55,1795.69 524.21,1795.33 524.29,1797.77 531.08,1797.54 530.96,1794.05"/>
    <poly id="248503692" type="building" color="255,230,230" fill="1" layer="2.00" shape="418.55,1791.00 406.32,1791.52 406.55,1796.97 407.62,1796.92 407.72,1799.07 418.87,1798.59 418.55,1791.00"/>
    <poly id="248503693" type="building" color="255,230,230" fill="1" layer="2.00" shape="454.93,1788.88 438.78,1789.45 439.09,1798.22 455.24,1797.66 455.08,1793.23 454.93,1788.88"/>
    <poly id="248503695" type="building" color="255,230,230" fill="1" layer="2.00" shape="343.92,1785.13 338.11,1785.31 338.01,1782.04 328.91,1782.33 328.95,1783.65 326.54,1783.73 326.72,1789.61 329.32,1789.53 329.49,1795.10 344.22,1794.64 343.92,1785.13"/>
    <poly id="248503696" type="building" color="255,230,230" fill="1" layer="2.00" shape="499.67,1776.32 496.98,1776.40 496.90,1773.09 481.05,1773.49 481.15,1777.87 483.81,1777.81 484.00,1785.41 499.89,1785.01 499.67,1776.32"/>
    <poly id="248503697" type="building" color="255,230,230" fill="1" layer="2.00" shape="380.11,1787.57 376.52,1787.67 376.46,1785.55 376.12,1785.56 375.91,1778.98 360.48,1779.47 360.78,1789.01 371.74,1788.66 371.83,1791.25 380.22,1790.99 380.11,1787.57"/>
    <poly id="248503698" type="building" color="255,230,230" fill="1" layer="2.00" shape="530.07,1772.86 514.50,1773.35 514.80,1782.79 530.37,1782.31 530.07,1772.86"/>
    <poly id="248503701" type="building" color="255,230,230" fill="1" layer="2.00" shape="417.96,1779.70 429.14,1779.26 429.00,1775.55 416.95,1776.03 417.05,1778.80 403.54,1779.34 403.76,1784.83 407.07,1784.69 407.15,1786.96 418.24,1786.52 417.96,1779.70"/>
    <poly id="248503703" type="building" color="255,230,230" fill="1" layer="2.00" shape="454.12,1776.80 438.31,1777.46 438.67,1785.90 454.47,1785.24 454.28,1780.65 454.12,1776.80"/>
    <poly id="248503705" type="building" color="255,230,230" fill="1" layer="2.00" shape="333.37,1755.39 326.62,1755.61 327.02,1768.00 327.34,1767.99 327.55,1774.48 333.98,1774.28 333.82,1769.54 333.37,1755.39"/>
    <poly id="248503706" type="building" color="255,230,230" fill="1" layer="2.00" shape="498.93,1761.62 487.33,1762.10 487.21,1759.04 480.76,1759.30 480.90,1762.69 482.93,1762.60 483.26,1770.73 499.28,1770.08 498.93,1761.62"/>
    <poly id="248503707" type="building" color="255,230,230" fill="1" layer="2.00" shape="532.65,1747.55 523.95,1747.92 524.64,1764.11 525.68,1764.07 526.01,1771.75 533.67,1771.43 532.65,1747.55"/>
    <poly id="248503709" type="building" color="255,230,230" fill="1" layer="2.00" shape="498.43,1747.24 482.30,1747.81 482.42,1751.04 482.54,1751.04 482.74,1756.53 498.74,1755.96 498.71,1755.14 498.43,1747.24"/>
    <poly id="248503711" type="building" color="255,230,230" fill="1" layer="2.00" shape="386.46,1915.20 384.72,1915.25 384.56,1909.38 377.62,1909.57 378.04,1925.52 385.04,1925.32 384.87,1919.20 386.56,1919.16 386.46,1915.20"/>
    <poly id="248503712" type="building" color="255,230,230" fill="1" layer="2.00" shape="535.20,1900.64 526.54,1900.89 527.05,1918.56 535.71,1918.30 535.20,1900.64"/>
    <poly id="248503714" type="building" color="255,230,230" fill="1" layer="2.00" shape="577.63,1901.13 562.99,1901.60 563.20,1907.94 564.28,1907.91 564.33,1909.52 577.89,1909.10 577.63,1901.13"/>
    <poly id="248503720" type="building" color="255,230,230" fill="1" layer="2.00" shape="650.54,1777.79 649.72,1777.82 649.58,1773.69 640.03,1774.01 639.98,1772.52 633.79,1772.73 634.17,1783.52 649.84,1782.96 649.84,1782.71 650.71,1782.68 650.54,1777.79"/>
    <poly id="248503723" type="building" color="255,230,230" fill="1" layer="2.00" shape="648.55,1758.65 633.08,1759.24 633.23,1763.07 633.63,1763.06 633.85,1768.85 648.92,1768.26 648.55,1758.65"/>
    <poly id="248503726" type="building" color="255,230,230" fill="1" layer="2.00" shape="648.72,1743.61 632.75,1744.40 632.99,1749.25 633.28,1749.23 633.40,1751.57 632.86,1751.60 632.98,1753.98 649.19,1753.19 648.72,1743.61"/>
    <poly id="248503737" type="building" color="255,230,230" fill="1" layer="2.00" shape="650.36,1788.50 640.11,1788.84 640.05,1786.84 634.30,1787.03 634.51,1793.64 634.64,1793.63 634.72,1796.13 634.39,1796.13 634.47,1798.58 650.68,1798.04 650.36,1788.50"/>
    <poly id="248503739" type="building" color="255,230,230" fill="1" layer="2.00" shape="575.49,1774.67 574.67,1774.70 574.54,1771.09 558.35,1771.66 558.64,1779.54 562.64,1779.39 562.72,1781.73 575.73,1781.26 575.49,1774.67"/>
    <poly id="248504059" type="building" color="255,230,230" fill="1" layer="2.00" shape="496.94,1900.75 486.86,1901.12 487.10,1907.49 486.30,1907.51 486.46,1911.76 487.57,1911.72 487.95,1921.70 496.95,1921.36 496.65,1913.21 497.41,1913.19 496.94,1900.75"/>
    <poly id="248504064" type="building" color="255,230,230" fill="1" layer="2.00" shape="364.21,1887.95 358.14,1888.14 358.26,1892.15 364.34,1891.96 364.21,1887.95"/>
    <poly id="248504067" type="building" color="255,230,230" fill="1" layer="2.00" shape="592.93,1876.62 586.15,1876.90 586.31,1880.88 593.10,1880.59 592.93,1876.62"/>
    <poly id="248504068" type="building" color="255,230,230" fill="1" layer="2.00" shape="509.41,1879.59 502.65,1879.64 502.69,1883.81 509.44,1883.74 509.41,1879.59"/>
    <poly id="248504071" type="building" color="255,230,230" fill="1" layer="2.00" shape="383.73,1899.09 376.29,1899.24 376.39,1903.80 383.83,1903.63 383.73,1899.09"/>
    <poly id="248504072" type="building" color="255,230,230" fill="1" layer="2.00" shape="515.13,1839.47 507.97,1839.72 508.20,1846.17 515.37,1845.90 515.13,1839.47"/>
    <poly id="248504074" type="building" color="255,230,230" fill="1" layer="2.00" shape="504.43,1746.71 500.74,1746.82 500.94,1753.69 504.64,1753.59 504.43,1746.71"/>
    <poly id="248504077" type="building" color="255,230,230" fill="1" layer="2.00" shape="353.34,1778.35 346.45,1778.55 346.58,1783.04 353.46,1782.83 353.34,1778.35"/>
    <poly id="248504079" type="building" color="255,230,230" fill="1" layer="2.00" shape="430.87,1824.40 424.53,1824.60 424.65,1828.55 430.99,1828.35 430.87,1824.40"/>
    <poly id="248504082" type="building" color="255,230,230" fill="1" layer="2.00" shape="361.72,1826.91 355.45,1827.01 355.51,1831.04 361.79,1830.94 361.72,1826.91"/>
    <poly id="248504083" type="building" color="255,230,230" fill="1" layer="2.00" shape="446.59,1896.45 442.77,1896.53 442.91,1902.33 446.73,1902.24 446.59,1896.45"/>
    <poly id="248504086" type="building" color="255,230,230" fill="1" layer="2.00" shape="584.41,1847.66 577.97,1847.84 578.08,1851.61 584.51,1851.43 584.41,1847.66"/>
    <poly id="248504091" type="building" color="255,230,230" fill="1" layer="2.00" shape="509.79,1882.33 510.06,1888.23 516.74,1887.92 516.48,1882.03 509.79,1882.33"/>
    <poly id="248504096" type="building" color="255,230,230" fill="1" layer="2.00" shape="591.02,1830.70 584.76,1830.86 584.94,1837.69 591.19,1837.53 591.02,1830.70"/>
    <poly id="248504099" type="building" color="255,230,230" fill="1" layer="2.00" shape="354.84,1826.74 348.40,1826.88 348.54,1833.18 354.97,1833.04 354.84,1826.74"/>
    <poly id="248504108" type="building" color="255,230,230" fill="1" layer="2.00" shape="355.97,1870.04 349.87,1870.47 350.17,1874.75 356.27,1874.32 355.97,1870.04"/>
    <poly id="248504110" type="building" color="255,230,230" fill="1" layer="2.00" shape="455.65,1896.64 449.63,1896.87 449.78,1900.77 455.79,1900.54 455.65,1896.64"/>