<?xml version="1.0" encoding="UTF-8"?>

<!-- generated on Mon Dec  8 08:14:05 2014 by SUMO netgenerate Version 0.19.0
<?xml version="1.0" encoding="UTF-8"?>

<configuration xmlns:xsi="http://www.w3.org/2001/XMLSchema-instance" xsi:noNamespaceSchemaLocation="http://sumo-sim.org/xsd/netgenerateConfiguration.xsd">

    <spider_network>
        <spider value="true"/>
        <spider.arm-number value="3"/>
        <spider.circle-number value="3"/>
    </spider_network>

    <output>
        <output-file value="net.net.xml"/>
    </output>

    <tls_building>
        <tls.guess value="true"/>
    </tls_building>

    <processing>
        <no-turnarounds value="true"/>
    </processing>

</configuration>
-->

<net version="0.13" xmlns:xsi="http://www.w3.org/2001/XMLSchema-instance" xsi:noNamespaceSchemaLocation="http://sumo-sim.org/xsd/net_file.xsd">

    <location netOffset="150.00,259.81" convBoundary="0.00,0.00,450.00,519.62" origBoundary="-150.00,-259.81,300.00,259.81" projParameter="!"/>

    <edge id=":1_0" function="internal">
        <lane id=":1_0_0" index="0" speed="13.90" length="4.41" shape="153.38,261.46 152.24,261.59 151.26,261.98 150.42,262.64 149.74,263.56"/>
    </edge>
    <edge id=":1_1" function="internal">
        <lane id=":1_1_0" index="0" speed="13.90" length="2.78" shape="153.38,261.46 151.35,261.22 150.66,260.95"/>
    </edge>
    <edge id=":1_6" function="internal">
        <lane id=":1_6_0" index="0" speed="13.90" length="5.09" shape="150.66,260.95 149.59,260.52 148.10,259.35 146.88,257.71"/>
    </edge>
    <edge id=":1_2" function="internal">
        <lane id=":1_2_0" index="0" speed="13.90" length="4.41" shape="149.74,256.06 150.42,256.98 151.26,257.63 152.24,258.03 153.38,258.16"/>
    </edge>
    <edge id=":1_3" function="internal">
        <lane id=":1_3_0" index="0" speed="13.90" length="5.09" shape="149.74,256.06 150.55,257.93 150.82,259.81 150.66,260.95"/>
    </edge>
    <edge id=":1_7" function="internal">
        <lane id=":1_7_0" index="0" speed="13.90" length="2.78" shape="150.66,260.95 150.55,261.68 149.74,263.56"/>
    </edge>
    <edge id=":1_4" function="internal">
        <lane id=":1_4_0" index="0" speed="13.90" length="4.41" shape="146.88,261.91 147.34,260.86 147.49,259.81 147.34,258.76 146.88,257.71"/>
    </edge>
    <edge id=":1_5" function="internal">
        <lane id=":1_5_0" index="0" speed="13.90" length="7.87" shape="146.88,261.91 148.10,260.27 149.59,259.09 151.35,258.39 153.38,258.16"/>
    </edge>
    <edge id=":1/1_0" function="internal">
        <lane id=":1/1_0_0" index="0" speed="13.90" length="15.08" shape="252.37,261.46 248.78,262.14 245.45,263.82 242.23,265.97 239.02,268.05"/>
    </edge>
    <edge id=":1/1_1" function="internal">
        <lane id=":1/1_1_0" index="0" speed="13.90" length="16.00" shape="252.37,261.46 248.46,261.46 244.37,261.46 240.28,261.46 236.37,261.46"/>
    </edge>
    <edge id=":1/1_2" function="internal">
        <lane id=":1/1_2_0" index="0" speed="13.90" length="16.74" shape="252.37,261.46 248.53,260.71 244.62,258.88 240.84,256.58 237.37,254.42"/>
    </edge>
    <edge id=":1/1_3" function="internal">
        <lane id=":1/1_3_0" index="0" speed="13.90" length="15.08" shape="239.02,251.56 242.23,253.65 245.45,255.80 248.78,257.48 252.37,258.16"/>
    </edge>
    <edge id=":1/1_4" function="internal">
        <lane id=":1/1_4_0" index="0" speed="13.90" length="9.45" shape="239.02,251.56 244.38,255.69 245.45,258.16"/>
    </edge>
    <edge id=":1/1_5" function="internal">
        <lane id=":1/1_5_0" index="0" speed="13.90" length="10.18" shape="239.02,251.56 245.28,255.89 246.49,258.16"/>
    </edge>
    <edge id=":1/1_12" function="internal">
        <lane id=":1/1_12_0" index="0" speed="13.90" length="13.05" shape="245.45,258.16 246.16,259.81 244.38,263.93 239.02,268.05"/>
    </edge>
    <edge id=":1/1_13" function="internal">
        <lane id=":1/1_13_0" index="0" speed="13.90" length="12.05" shape="246.49,258.16 246.93,258.98 243.96,260.84 236.37,261.46"/>
    </edge>
    <edge id=":1/1_6" function="internal">
        <lane id=":1/1_6_0" index="0" speed="13.90" length="8.39" shape="236.37,258.16 239.24,257.92 240.36,257.22 239.74,256.06 237.37,254.42"/>
    </edge>
    <edge id=":1/1_7" function="internal">
        <lane id=":1/1_7_0" index="0" speed="13.90" length="16.00" shape="236.37,258.16 240.28,258.16 244.37,258.16 248.46,258.16 252.37,258.16"/>
    </edge>
    <edge id=":1/1_8" function="internal">
        <lane id=":1/1_8_0" index="0" speed="13.90" length="5.15" shape="236.37,258.16 241.50,258.58"/>
    </edge>
    <edge id=":1/1_14" function="internal">
        <lane id=":1/1_14_0" index="0" speed="13.90" length="17.08" shape="241.50,258.58 243.96,258.78 246.93,260.63 245.28,263.72 239.02,268.05"/>
    </edge>
    <edge id=":1/1_9" function="internal">
        <lane id=":1/1_9_0" index="0" speed="13.90" length="8.39" shape="237.37,265.19 239.74,263.56 240.36,262.39 239.24,261.69 236.37,261.46"/>
    </edge>
    <edge id=":1/1_10" function="internal">
        <lane id=":1/1_10_0" index="0" speed="13.90" length="14.70" shape="237.37,265.19 240.87,262.50 242.04,259.81 240.87,257.11 237.37,254.42"/>
    </edge>
    <edge id=":1/1_11" function="internal">
        <lane id=":1/1_11_0" index="0" speed="13.90" length="16.74" shape="237.37,265.19 240.84,263.04 244.62,260.74 248.53,258.91 252.37,258.16"/>
    </edge>
    <edge id=":1/2_0" function="internal">
        <lane id=":1/2_0_0" index="0" speed="13.90" length="15.08" shape="352.37,261.46 348.78,262.14 345.45,263.82 342.23,265.97 339.02,268.05"/>
    </edge>
    <edge id=":1/2_1" function="internal">
        <lane id=":1/2_1_0" index="0" speed="13.90" length="16.00" shape="352.37,261.46 348.46,261.46 344.37,261.46 340.28,261.46 336.37,261.46"/>
    </edge>
    <edge id=":1/2_2" function="internal">
        <lane id=":1/2_2_0" index="0" speed="13.90" length="16.74" shape="352.37,261.46 348.53,260.71 344.62,258.88 340.84,256.58 337.37,254.42"/>
    </edge>
    <edge id=":1/2_3" function="internal">
        <lane id=":1/2_3_0" index="0" speed="13.90" length="15.08" shape="339.02,251.56 342.23,253.65 345.45,255.80 348.78,257.48 352.37,258.16"/>
    </edge>
    <edge id=":1/2_4" function="internal">
        <lane id=":1/2_4_0" index="0" speed="13.90" length="9.45" shape="339.02,251.56 344.38,255.69 345.45,258.16"/>
    </edge>
    <edge id=":1/2_5" function="internal">
        <lane id=":1/2_5_0" index="0" speed="13.90" length="10.18" shape="339.02,251.56 345.28,255.89 346.49,258.16"/>
    </edge>
    <edge id=":1/2_12" function="internal">
        <lane id=":1/2_12_0" index="0" speed="13.90" length="13.05" shape="345.45,258.16 346.16,259.81 344.38,263.93 339.02,268.05"/>
    </edge>
    <edge id=":1/2_13" function="internal">
        <lane id=":1/2_13_0" index="0" speed="13.90" length="12.05" shape="346.49,258.16 346.93,258.98 343.96,260.84 336.37,261.46"/>
    </edge>
    <edge id=":1/2_6" function="internal">
        <lane id=":1/2_6_0" index="0" speed="13.90" length="8.39" shape="336.37,258.16 339.24,257.92 340.36,257.22 339.74,256.06 337.37,254.42"/>
    </edge>
    <edge id=":1/2_7" function="internal">
        <lane id=":1/2_7_0" index="0" speed="13.90" length="16.00" shape="336.37,258.16 340.28,258.16 344.37,258.16 348.46,258.16 352.37,258.16"/>
    </edge>
    <edge id=":1/2_8" function="internal">
        <lane id=":1/2_8_0" index="0" speed="13.90" length="5.15" shape="336.37,258.16 341.50,258.58"/>
    </edge>
    <edge id=":1/2_14" function="internal">
        <lane id=":1/2_14_0" index="0" speed="13.90" length="17.08" shape="341.50,258.58 343.96,258.78 346.93,260.63 345.28,263.72 339.02,268.05"/>
    </edge>
    <edge id=":1/2_9" function="internal">
        <lane id=":1/2_9_0" index="0" speed="13.90" length="8.39" shape="337.37,265.19 339.74,263.56 340.36,262.39 339.24,261.69 336.37,261.46"/>
    </edge>
    <edge id=":1/2_10" function="internal">
        <lane id=":1/2_10_0" index="0" speed="13.90" length="14.70" shape="337.37,265.19 340.87,262.50 342.04,259.81 340.87,257.11 337.37,254.42"/>
    </edge>
    <edge id=":1/2_11" function="internal">
        <lane id=":1/2_11_0" index="0" speed="13.90" length="16.74" shape="337.37,265.19 340.84,263.04 344.62,260.74 348.53,258.91 352.37,258.16"/>
    </edge>
    <edge id=":1/3_0" function="internal">
        <lane id=":1/3_0_0" index="0" speed="13.90" length="11.54" shape="439.02,251.56 444.38,255.69 446.16,259.81 446.04,260.08"/>
    </edge>
    <edge id=":1/3_1" function="internal">
        <lane id=":1/3_1_0" index="0" speed="13.90" length="17.08" shape="439.02,251.56 445.28,255.89 446.93,258.98 443.96,260.84 441.50,261.04"/>
    </edge>
    <edge id=":1/3_6" function="internal">
        <lane id=":1/3_6_0" index="0" speed="13.90" length="10.95" shape="446.04,260.08 444.38,263.93 439.02,268.05"/>
    </edge>
    <edge id=":1/3_7" function="internal">
        <lane id=":1/3_7_0" index="0" speed="13.90" length="5.15" shape="441.50,261.04 436.37,261.46"/>
    </edge>
    <edge id=":1/3_2" function="internal">
        <lane id=":1/3_2_0" index="0" speed="13.90" length="8.39" shape="436.37,258.16 439.24,257.92 440.36,257.22 439.74,256.06 437.37,254.42"/>
    </edge>
    <edge id=":1/3_3" function="internal">
        <lane id=":1/3_3_0" index="0" speed="13.90" length="5.15" shape="436.37,258.16 441.50,258.58"/>
    </edge>
    <edge id=":1/3_8" function="internal">
        <lane id=":1/3_8_0" index="0" speed="13.90" length="17.08" shape="441.50,258.58 443.96,258.78 446.93,260.63 445.28,263.72 439.02,268.05"/>
    </edge>
    <edge id=":1/3_4" function="internal">
        <lane id=":1/3_4_0" index="0" speed="13.90" length="8.39" shape="437.37,265.19 439.74,263.56 440.36,262.39 439.24,261.69 436.37,261.46"/>
    </edge>
    <edge id=":1/3_5" function="internal">
        <lane id=":1/3_5_0" index="0" speed="13.90" length="14.70" shape="437.37,265.19 440.87,262.50 442.04,259.81 440.87,257.11 437.37,254.42"/>
    </edge>
    <edge id=":2/1_0" function="internal">
        <lane id=":2/1_0_0" index="0" speed="13.90" length="7.00" shape="112.63,341.02 105.74,339.76"/>
    </edge>
    <edge id=":2/1_1" function="internal">
        <lane id=":2/1_1_0" index="0" speed="13.90" length="11.54" shape="112.63,341.02 106.38,343.60 101.92,343.09 101.74,342.85"/>
    </edge>
    <edge id=":2/1_2" function="internal">
        <lane id=":2/1_2_0" index="0" speed="13.90" length="17.08" shape="112.63,341.02 105.75,344.28 102.25,344.16 102.13,340.66 103.18,338.44"/>
    </edge>
    <edge id=":2/1_12" function="internal">
        <lane id=":2/1_12_0" index="0" speed="13.90" length="10.95" shape="101.74,342.85 99.24,339.48 98.35,332.78"/>
    </edge>
    <edge id=":2/1_13" function="internal">
        <lane id=":2/1_13_0" index="0" speed="13.90" length="5.15" shape="103.18,338.44 105.39,333.78"/>
    </edge>
    <edge id=":2/1_3" function="internal">
        <lane id=":2/1_3_0" index="0" speed="13.90" length="8.39" shape="108.24,335.43 107.01,338.03 107.06,339.35 108.38,339.40 110.98,338.17"/>
    </edge>
    <edge id=":2/1_4" function="internal">
        <lane id=":2/1_4_0" index="0" speed="13.90" length="5.00" shape="108.24,335.43 105.74,339.76"/>
    </edge>
    <edge id=":2/1_5" function="internal">
        <lane id=":2/1_5_0" index="0" speed="13.90" length="4.79" shape="108.24,335.43 105.52,339.38"/>
    </edge>
    <edge id=":2/1_14" function="internal">
        <lane id=":2/1_14_0" index="0" speed="13.90" length="17.43" shape="105.52,339.38 103.92,341.69 100.82,343.34 98.97,340.37 98.35,332.78"/>
    </edge>
    <edge id=":2/1_6" function="internal">
        <lane id=":2/1_6_0" index="0" speed="13.90" length="8.39" shape="101.65,332.78 101.88,335.65 102.58,336.77 103.75,336.15 105.39,333.78"/>
    </edge>
    <edge id=":2/1_7" function="internal">
        <lane id=":2/1_7_0" index="0" speed="13.90" length="14.70" shape="101.65,332.78 102.23,337.16 103.98,339.51 106.90,339.85 110.98,338.17"/>
    </edge>
    <edge id=":2/1_8" function="internal">
        <lane id=":2/1_8_0" index="0" speed="13.90" length="8.09" shape="101.65,332.78 105.74,339.76"/>
    </edge>
    <edge id=":2/1_9" function="internal">
        <lane id=":2/1_9_0" index="0" speed="13.90" length="7.00" shape="102.89,338.11 98.35,332.78"/>
    </edge>
    <edge id=":2/1_10" function="internal">
        <lane id=":2/1_10_0" index="0" speed="13.90" length="5.00" shape="102.89,338.11 105.39,333.78"/>
    </edge>
    <edge id=":2/1_11" function="internal">
        <lane id=":2/1_11_0" index="0" speed="13.90" length="8.09" shape="102.89,338.11 110.98,338.17"/>
    </edge>
    <edge id=":2/2_0" function="internal">
        <lane id=":2/2_0_0" index="0" speed="13.90" length="7.00" shape="62.63,427.63 55.74,426.36"/>
    </edge>
    <edge id=":2/2_1" function="internal">
        <lane id=":2/2_1_0" index="0" speed="13.90" length="11.54" shape="62.63,427.63 56.38,430.20 51.92,429.69 51.74,429.45"/>
    </edge>
    <edge id=":2/2_2" function="internal">
        <lane id=":2/2_2_0" index="0" speed="13.90" length="17.08" shape="62.63,427.63 55.75,430.88 52.25,430.76 52.13,427.26 53.18,425.04"/>
    </edge>
    <edge id=":2/2_12" function="internal">
        <lane id=":2/2_12_0" index="0" speed="13.90" length="10.95" shape="51.74,429.45 49.24,426.08 48.35,419.38"/>
    </edge>
    <edge id=":2/2_13" function="internal">
        <lane id=":2/2_13_0" index="0" speed="13.90" length="5.15" shape="53.18,425.04 55.39,420.38"/>
    </edge>
    <edge id=":2/2_3" function="internal">
        <lane id=":2/2_3_0" index="0" speed="13.90" length="8.39" shape="58.24,422.03 57.01,424.63 57.06,425.95 58.38,426.00 60.98,424.77"/>
    </edge>
    <edge id=":2/2_4" function="internal">
        <lane id=":2/2_4_0" index="0" speed="13.90" length="5.00" shape="58.24,422.03 55.74,426.36"/>
    </edge>
    <edge id=":2/2_5" function="internal">
        <lane id=":2/2_5_0" index="0" speed="13.90" length="4.79" shape="58.24,422.03 55.52,425.98"/>
    </edge>
    <edge id=":2/2_14" function="internal">
        <lane id=":2/2_14_0" index="0" speed="13.90" length="17.43" shape="55.52,425.98 53.92,428.29 50.82,429.94 48.97,426.97 48.35,419.38"/>
    </edge>
    <edge id=":2/2_6" function="internal">
        <lane id=":2/2_6_0" index="0" speed="13.90" length="8.39" shape="51.65,419.38 51.88,422.25 52.58,423.37 53.75,422.75 55.39,420.38"/>
    </edge>
    <edge id=":2/2_7" function="internal">
        <lane id=":2/2_7_0" index="0" speed="13.90" length="14.70" shape="51.65,419.38 52.23,423.76 53.98,426.12 56.90,426.45 60.98,424.77"/>
    </edge>
    <edge id=":2/2_8" function="internal">
        <lane id=":2/2_8_0" index="0" speed="13.90" length="8.09" shape="51.65,419.38 55.74,426.36"/>
    </edge>
    <edge id=":2/2_9" function="internal">
        <lane id=":2/2_9_0" index="0" speed="13.90" length="7.00" shape="52.89,424.71 48.35,419.38"/>
    </edge>
    <edge id=":2/2_10" function="internal">
        <lane id=":2/2_10_0" index="0" speed="13.90" length="5.00" shape="52.89,424.71 55.39,420.38"/>
    </edge>
    <edge id=":2/2_11" function="internal">
        <lane id=":2/2_11_0" index="0" speed="13.90" length="8.09" shape="52.89,424.71 60.98,424.77"/>
    </edge>
    <edge id=":2/3_0" function="internal">
        <lane id=":2/3_0_0" index="0" speed="13.90" length="11.54" shape="12.63,514.23 6.38,516.81 1.92,516.29 1.74,516.05"/>
    </edge>
    <edge id=":2/3_1" function="internal">
        <lane id=":2/3_1_0" index="0" speed="13.90" length="17.08" shape="12.63,514.23 5.75,517.49 2.25,517.37 2.13,513.87 3.18,511.64"/>
    </edge>
    <edge id=":2/3_6" function="internal">
        <lane id=":2/3_6_0" index="0" speed="13.90" length="10.95" shape="1.74,516.05 -0.76,512.68 -1.65,505.99"/>
    </edge>
    <edge id=":2/3_7" function="internal">
        <lane id=":2/3_7_0" index="0" speed="13.90" length="5.15" shape="3.18,511.64 5.39,506.99"/>
    </edge>
    <edge id=":2/3_2" function="internal">
        <lane id=":2/3_2_0" index="0" speed="13.90" length="8.39" shape="8.24,508.64 7.01,511.23 7.06,512.56 8.38,512.60 10.98,511.37"/>
    </edge>
    <edge id=":2/3_3" function="internal">
        <lane id=":2/3_3_0" index="0" speed="13.90" length="5.15" shape="8.24,508.64 5.32,512.87"/>
    </edge>
    <edge id=":2/3_8" function="internal">
        <lane id=":2/3_8_0" index="0" speed="13.90" length="17.08" shape="5.32,512.87 3.92,514.90 0.82,516.54 -1.03,513.57 -1.65,505.99"/>
    </edge>
    <edge id=":2/3_4" function="internal">
        <lane id=":2/3_4_0" index="0" speed="13.90" length="8.39" shape="1.65,505.99 1.88,508.85 2.58,509.97 3.75,509.35 5.39,506.99"/>
    </edge>
    <edge id=":2/3_5" function="internal">
        <lane id=":2/3_5_0" index="0" speed="13.90" length="14.70" shape="1.65,505.99 2.23,510.36 3.98,512.72 6.90,513.05 10.98,511.37"/>
    </edge>
    <edge id=":3/1_0" function="internal">
        <lane id=":3/1_0_0" index="0" speed="13.90" length="7.00" shape="98.35,186.83 102.89,181.50"/>
    </edge>
    <edge id=":3/1_1" function="internal">
        <lane id=":3/1_1_0" index="0" speed="13.90" length="11.54" shape="98.35,186.83 99.24,180.14 101.92,176.53 102.21,176.50"/>
    </edge>
    <edge id=":3/1_2" function="internal">
        <lane id=":3/1_2_0" index="0" speed="13.90" length="17.08" shape="98.35,186.83 98.97,179.25 100.82,176.28 103.92,177.92 105.32,179.95"/>
    </edge>
    <edge id=":3/1_12" function="internal">
        <lane id=":3/1_12_0" index="0" speed="13.90" length="10.95" shape="102.21,176.50 106.38,176.01 112.63,178.59"/>
    </edge>
    <edge id=":3/1_13" function="internal">
        <lane id=":3/1_13_0" index="0" speed="13.90" length="5.15" shape="105.32,179.95 108.24,184.18"/>
    </edge>
    <edge id=":3/1_3" function="internal">
        <lane id=":3/1_3_0" index="0" speed="13.90" length="8.39" shape="105.39,185.83 103.75,183.47 102.58,182.85 101.88,183.97 101.65,186.83"/>
    </edge>
    <edge id=":3/1_4" function="internal">
        <lane id=":3/1_4_0" index="0" speed="13.90" length="5.00" shape="105.39,185.83 102.89,181.50"/>
    </edge>
    <edge id=":3/1_5" function="internal">
        <lane id=":3/1_5_0" index="0" speed="13.90" length="4.79" shape="105.39,185.83 103.33,181.50"/>
    </edge>
    <edge id=":3/1_14" function="internal">
        <lane id=":3/1_14_0" index="0" speed="13.90" length="17.43" shape="103.33,181.50 102.13,178.95 102.25,175.45 105.75,175.33 112.63,178.59"/>
    </edge>
    <edge id=":3/1_6" function="internal">
        <lane id=":3/1_6_0" index="0" speed="13.90" length="8.39" shape="110.98,181.45 108.38,180.22 107.06,180.26 107.01,181.59 108.24,184.18"/>
    </edge>
    <edge id=":3/1_7" function="internal">
        <lane id=":3/1_7_0" index="0" speed="13.90" length="14.70" shape="110.98,181.45 106.90,179.77 103.98,180.10 102.23,182.46 101.65,186.83"/>
    </edge>
    <edge id=":3/1_8" function="internal">
        <lane id=":3/1_8_0" index="0" speed="13.90" length="8.09" shape="110.98,181.45 102.89,181.50"/>
    </edge>
    <edge id=":3/1_9" function="internal">
        <lane id=":3/1_9_0" index="0" speed="13.90" length="7.00" shape="105.74,179.85 112.63,178.59"/>
    </edge>
    <edge id=":3/1_10" function="internal">
        <lane id=":3/1_10_0" index="0" speed="13.90" length="5.00" shape="105.74,179.85 108.24,184.18"/>
    </edge>
    <edge id=":3/1_11" function="internal">
        <lane id=":3/1_11_0" index="0" speed="13.90" length="8.09" shape="105.74,179.85 101.65,186.83"/>
    </edge>
    <edge id=":3/2_0" function="internal">
        <lane id=":3/2_0_0" index="0" speed="13.90" length="7.00" shape="48.35,100.23 52.89,94.90"/>
    </edge>
    <edge id=":3/2_1" function="internal">
        <lane id=":3/2_1_0" index="0" speed="13.90" length="11.54" shape="48.35,100.23 49.24,93.53 51.92,89.93 52.21,89.89"/>
    </edge>
    <edge id=":3/2_2" function="internal">
        <lane id=":3/2_2_0" index="0" speed="13.90" length="17.08" shape="48.35,100.23 48.97,92.65 50.82,89.68 53.92,91.32 55.32,93.35"/>
    </edge>
    <edge id=":3/2_12" function="internal">
        <lane id=":3/2_12_0" index="0" speed="13.90" length="10.95" shape="52.21,89.89 56.38,89.41 62.63,91.99"/>
    </edge>
    <edge id=":3/2_13" function="internal">
        <lane id=":3/2_13_0" index="0" speed="13.90" length="5.15" shape="55.32,93.35 58.24,97.58"/>
    </edge>
    <edge id=":3/2_3" function="internal">
        <lane id=":3/2_3_0" index="0" speed="13.90" length="8.39" shape="55.39,99.23 53.75,96.87 52.58,96.25 51.88,97.37 51.65,100.23"/>
    </edge>
    <edge id=":3/2_4" function="internal">
        <lane id=":3/2_4_0" index="0" speed="13.90" length="5.00" shape="55.39,99.23 52.89,94.90"/>
    </edge>
    <edge id=":3/2_5" function="internal">
        <lane id=":3/2_5_0" index="0" speed="13.90" length="4.79" shape="55.39,99.23 53.33,94.90"/>
    </edge>
    <edge id=":3/2_14" function="internal">
        <lane id=":3/2_14_0" index="0" speed="13.90" length="17.43" shape="53.33,94.90 52.13,92.35 52.25,88.85 55.75,88.73 62.63,91.99"/>
    </edge>
    <edge id=":3/2_6" function="internal">
        <lane id=":3/2_6_0" index="0" speed="13.90" length="8.39" shape="60.98,94.85 58.38,93.62 57.06,93.66 57.01,94.98 58.24,97.58"/>
    </edge>
    <edge id=":3/2_7" function="internal">
        <lane id=":3/2_7_0" index="0" speed="13.90" length="14.70" shape="60.98,94.85 56.90,93.16 53.98,93.50 52.23,95.86 51.65,100.23"/>
    </edge>
    <edge id=":3/2_8" function="internal">
        <lane id=":3/2_8_0" index="0" speed="13.90" length="8.09" shape="60.98,94.85 52.89,94.90"/>
    </edge>
    <edge id=":3/2_9" function="internal">
        <lane id=":3/2_9_0" index="0" speed="13.90" length="7.00" shape="55.74,93.25 62.63,91.99"/>
    </edge>
    <edge id=":3/2_10" function="internal">
        <lane id=":3/2_10_0" index="0" speed="13.90" length="5.00" shape="55.74,93.25 58.24,97.58"/>
    </edge>
    <edge id=":3/2_11" function="internal">
        <lane id=":3/2_11_0" index="0" speed="13.90" length="8.09" shape="55.74,93.25 51.65,100.23"/>
    </edge>
    <edge id=":3/3_0" function="internal">
        <lane id=":3/3_0_0" index="0" speed="13.90" length="11.54" shape="-1.65,13.63 -0.76,6.93 1.92,3.32 2.21,3.29"/>
    </edge>
    <edge id=":3/3_1" function="internal">
        <lane id=":3/3_1_0" index="0" speed="13.90" length="17.08" shape="-1.65,13.63 -1.03,6.04 0.82,3.07 3.92,4.72 5.32,6.74"/>
    </edge>
    <edge id=":3/3_6" function="internal">
        <lane id=":3/3_6_0" index="0" speed="13.90" length="10.95" shape="2.21,3.29 6.38,2.81 12.63,5.39"/>
    </edge>
    <edge id=":3/3_7" function="internal">
        <lane id=":3/3_7_0" index="0" speed="13.90" length="5.15" shape="5.32,6.74 8.24,10.98"/>
    </edge>
    <edge id=":3/3_2" function="internal">
        <lane id=":3/3_2_0" index="0" speed="13.90" length="8.39" shape="5.39,12.63 3.75,10.26 2.58,9.64 1.88,10.76 1.65,13.63"/>
    </edge>
    <edge id=":3/3_3" function="internal">
        <lane id=":3/3_3_0" index="0" speed="13.90" length="5.15" shape="5.39,12.63 3.18,7.97"/>
    </edge>
    <edge id=":3/3_8" function="internal">
        <lane id=":3/3_8_0" index="0" speed="13.90" length="17.08" shape="3.18,7.97 2.13,5.75 2.25,2.25 5.75,2.13 12.63,5.39"/>
    </edge>
    <edge id=":3/3_4" function="internal">
        <lane id=":3/3_4_0" index="0" speed="13.90" length="8.39" shape="10.98,8.24 8.38,7.01 7.06,7.06 7.01,8.38 8.24,10.98"/>
    </edge>
    <edge id=":3/3_5" function="internal">
        <lane id=":3/3_5_0" index="0" speed="13.90" length="14.70" shape="10.98,8.24 6.90,6.56 3.98,6.90 2.23,9.25 1.65,13.63"/>
    </edge>

    <edge id="1/1to1" from="1/1" to="1" priority="-1">
        <lane id="1/1to1_0" index="0" speed="13.90" length="82.99" shape="236.37,261.46 153.38,261.46"/>
    </edge>
    <edge id="1/1to1/2" from="1/1" to="1/2" priority="-1">
        <lane id="1/1to1/2_0" index="0" speed="13.90" length="84.00" shape="252.37,258.16 336.37,258.16"/>
    </edge>
    <edge id="1/1to2/1" from="1/1" to="2/1" priority="-1">
        <lane id="1/1to2/1_0" index="0" speed="13.90" length="145.95" shape="239.02,268.05 112.63,341.02"/>
    </edge>
    <edge id="1/1to3/1" from="1/1" to="3/1" priority="-1">
        <lane id="1/1to3/1_0" index="0" speed="13.90" length="145.95" shape="237.37,254.42 110.98,181.45"/>
    </edge>
    <edge id="1/2to1/1" from="1/2" to="1/1" priority="-1">
        <lane id="1/2to1/1_0" index="0" speed="13.90" length="84.00" shape="336.37,261.46 252.37,261.46"/>
    </edge>
    <edge id="1/2to1/3" from="1/2" to="1/3" priority="-1">
        <lane id="1/2to1/3_0" index="0" speed="13.90" length="84.00" shape="352.37,258.16 436.37,258.16"/>
    </edge>
    <edge id="1/2to2/2" from="1/2" to="2/2" priority="-1">
        <lane id="1/2to2/2_0" index="0" speed="13.90" length="319.15" shape="339.02,268.05 62.63,427.63"/>
    </edge>
    <edge id="1/2to3/2" from="1/2" to="3/2" priority="-1">
        <lane id="1/2to3/2_0" index="0" speed="13.90" length="319.15" shape="337.37,254.42 60.98,94.85"/>
    </edge>
    <edge id="1/3to1/2" from="1/3" to="1/2" priority="-1">
        <lane id="1/3to1/2_0" index="0" speed="13.90" length="84.00" shape="436.37,261.46 352.37,261.46"/>
    </edge>
    <edge id="1/3to2/3" from="1/3" to="2/3" priority="-1">
        <lane id="1/3to2/3_0" index="0" speed="13.90" length="492.36" shape="439.02,268.05 12.63,514.23"/>
    </edge>
    <edge id="1/3to3/3" from="1/3" to="3/3" priority="-1">
        <lane id="1/3to3/3_0" index="0" speed="13.90" length="492.36" shape="437.37,254.42 10.98,8.24"/>
    </edge>
    <edge id="1to1/1" from="1" to="1/1" priority="-1">
        <lane id="1to1/1_0" index="0" speed="13.90" length="82.99" shape="153.38,258.16 236.37,258.16"/>
    </edge>
    <edge id="1to2/1" from="1" to="2/1" priority="-1">
        <lane id="1to2/1_0" index="0" speed="13.90" length="82.99" shape="149.74,263.56 108.24,335.43"/>
    </edge>
    <edge id="1to3/1" from="1" to="3/1" priority="-1">
        <lane id="1to3/1_0" index="0" speed="13.90" length="82.99" shape="146.88,257.71 105.39,185.83"/>
    </edge>
    <edge id="2/1to1" from="2/1" to="1" priority="-1">
        <lane id="2/1to1_0" index="0" speed="13.90" length="82.99" shape="105.39,333.78 146.88,261.91"/>
    </edge>
    <edge id="2/1to1/1" from="2/1" to="1/1" priority="-1">
        <lane id="2/1to1/1_0" index="0" speed="13.90" length="145.95" shape="110.98,338.17 237.37,265.19"/>
    </edge>
    <edge id="2/1to2/2" from="2/1" to="2/2" priority="-1">
        <lane id="2/1to2/2_0" index="0" speed="13.90" length="95.00" shape="105.74,339.76 58.24,422.03"/>
    </edge>
    <edge id="2/1to3/1" from="2/1" to="3/1" priority="-1">
        <lane id="2/1to3/1_0" index="0" speed="13.90" length="145.95" shape="98.35,332.78 98.35,186.83"/>
    </edge>
    <edge id="2/2to1/2" from="2/2" to="1/2" priority="-1">
        <lane id="2/2to1/2_0" index="0" speed="13.90" length="319.15" shape="60.98,424.77 337.37,265.19"/>
    </edge>
    <edge id="2/2to2/1" from="2/2" to="2/1" priority="-1">
        <lane id="2/2to2/1_0" index="0" speed="13.90" length="95.00" shape="55.39,420.38 102.89,338.11"/>
    </edge>
    <edge id="2/2to2/3" from="2/2" to="2/3" priority="-1">
        <lane id="2/2to2/3_0" index="0" speed="13.90" length="95.00" shape="55.74,426.36 8.24,508.64"/>
    </edge>
    <edge id="2/2to3/2" from="2/2" to="3/2" priority="-1">
        <lane id="2/2to3/2_0" index="0" speed="13.90" length="319.15" shape="48.35,419.38 48.35,100.23"/>
    </edge>
    <edge id="2/3to1/3" from="2/3" to="1/3" priority="-1">
        <lane id="2/3to1/3_0" index="0" speed="13.90" length="492.36" shape="10.98,511.37 437.37,265.19"/>
    </edge>
    <edge id="2/3to2/2" from="2/3" to="2/2" priority="-1">
        <lane id="2/3to2/2_0" index="0" speed="13.90" length="95.00" shape="5.39,506.99 52.89,424.71"/>
    </edge>
    <edge id="2/3to3/3" from="2/3" to="3/3" priority="-1">
        <lane id="2/3to3/3_0" index="0" speed="13.90" length="492.36" shape="-1.65,505.99 -1.65,13.63"/>
    </edge>
    <edge id="3/1to1" from="3/1" to="1" priority="-1">
        <lane id="3/1to1_0" index="0" speed="13.90" length="82.99" shape="108.24,184.18 149.74,256.06"/>
    </edge>
    <edge id="3/1to1/1" from="3/1" to="1/1" priority="-1">
        <lane id="3/1to1/1_0" index="0" speed="13.90" length="145.95" shape="112.63,178.59 239.02,251.56"/>
    </edge>
    <edge id="3/1to2/1" from="3/1" to="2/1" priority="-1">
        <lane id="3/1to2/1_0" index="0" speed="13.90" length="145.95" shape="101.65,186.83 101.65,332.78"/>
    </edge>
    <edge id="3/1to3/2" from="3/1" to="3/2" priority="-1">
        <lane id="3/1to3/2_0" index="0" speed="13.90" length="95.00" shape="102.89,181.50 55.39,99.23"/>
    </edge>
    <edge id="3/2to1/2" from="3/2" to="1/2" priority="-1">
        <lane id="3/2to1/2_0" index="0" speed="13.90" length="319.15" shape="62.63,91.99 339.02,251.56"/>
    </edge>
    <edge id="3/2to2/2" from="3/2" to="2/2" priority="-1">
        <lane id="3/2to2/2_0" index="0" speed="13.90" length="319.15" shape="51.65,100.23 51.65,419.38"/>
    </edge>
    <edge id="3/2to3/1" from="3/2" to="3/1" priority="-1">
        <lane id="3/2to3/1_0" index="0" speed="13.90" length="95.00" shape="58.24,97.58 105.74,179.85"/>
    </edge>
    <edge id="3/2to3/3" from="3/2" to="3/3" priority="-1">
        <lane id="3/2to3/3_0" index="0" speed="13.90" length="95.00" shape="52.89,94.90 5.39,12.63"/>
    </edge>
    <edge id="3/3to1/3" from="3/3" to="1/3" priority="-1">
        <lane id="3/3to1/3_0" index="0" speed="13.90" length="492.36" shape="12.63,5.39 439.02,251.56"/>
    </edge>
    <edge id="3/3to2/3" from="3/3" to="2/3" priority="-1">
        <lane id="3/3to2/3_0" index="0" speed="13.90" length="492.36" shape="1.65,13.63 1.65,505.99"/>
    </edge>
    <edge id="3/3to3/2" from="3/3" to="3/2" priority="-1">
        <lane id="3/3to3/2_0" index="0" speed="13.90" length="95.00" shape="8.24,10.98 55.74,93.25"/>
    </edge>
