<?xml version="1.0" encoding="UTF-8"?>

<!-- generated on Mon Dec  8 08:09:12 2014 by SUMO netgenerate Version 0.19.0
<?xml version="1.0" encoding="UTF-8"?>

<configuration xmlns:xsi="http://www.w3.org/2001/XMLSchema-instance" xsi:noNamespaceSchemaLocation="http://sumo-sim.org/xsd/netgenerateConfiguration.xsd">

    <grid_network>
        <grid value="true"/>
        <grid.x-number value="10"/>
        <grid.y-number value="10"/>
        <grid.x-length value="200"/>
        <grid.y-length value="200"/>
    </grid_network>

    <output>
        <output-file value="net.net.xml"/>
        <plain-output-prefix value="nodes"/>
    </output>

    <tls_building>
        <tls.guess value="true"/>
    </tls_building>

    <processing>
        <no-turnarounds value="true"/>
    </processing>

</configuration>
-->

<net version="0.13" xmlns:xsi="http://www.w3.org/2001/XMLSchema-instance" xsi:noNamespaceSchemaLocation="http://sumo-sim.org/xsd/net_file.xsd">

    <location netOffset="0.00,0.00" convBoundary="0.00,0.00,1800.00,1800.00" origBoundary="0.00,0.00,1800.00,1800.00" projParameter="!"/>

    <edge id=":0/0_0" function="internal">
        <lane id=":0/0_0_0" index="0" speed="13.90" length="7.90" shape="-1.65,3.25 -1.34,1.11 -0.42,-0.43 1.11,-1.34 3.25,-1.65"/>
    </edge>
    <edge id=":0/0_1" function="internal">
        <lane id=":0/0_1_0" index="0" speed="13.90" length="2.58" shape="3.25,1.65 2.55,1.75 2.05,2.05 1.75,2.55 1.65,3.25"/>
    </edge>
    <edge id=":0/1_0" function="internal">
        <lane id=":0/1_0_0" index="0" speed="13.90" length="9.50" shape="-1.65,204.75 -1.65,195.25"/>
    </edge>
    <edge id=":0/1_1" function="internal">
        <lane id=":0/1_1_0" index="0" speed="13.90" length="7.14" shape="-1.65,204.75 -1.25,201.95 -0.05,199.95 1.65,198.93"/>
    </edge>
    <edge id=":0/1_6" function="internal">
        <lane id=":0/1_6_0" index="0" speed="13.90" length="3.18" shape="1.65,198.93 1.95,198.75 4.75,198.35"/>
    </edge>
    <edge id=":0/1_2" function="internal">
        <lane id=":0/1_2_0" index="0" speed="13.90" length="5.00" shape="4.75,201.65 3.39,201.84 2.43,202.43 1.84,203.39 1.65,204.75"/>
    </edge>
    <edge id=":0/1_3" function="internal">
        <lane id=":0/1_3_0" index="0" speed="13.90" length="3.18" shape="4.75,201.65 1.95,201.25 1.65,201.07"/>
    </edge>
    <edge id=":0/1_7" function="internal">
        <lane id=":0/1_7_0" index="0" speed="13.90" length="7.14" shape="1.65,201.07 -0.05,200.05 -1.25,198.05 -1.65,195.25"/>
    </edge>
    <edge id=":0/1_4" function="internal">
        <lane id=":0/1_4_0" index="0" speed="13.90" length="5.00" shape="1.65,195.25 1.84,196.61 2.42,197.57 3.39,198.16 4.75,198.35"/>
    </edge>
    <edge id=":0/1_5" function="internal">
        <lane id=":0/1_5_0" index="0" speed="13.90" length="9.50" shape="1.65,195.25 1.65,204.75"/>
    </edge>
    <edge id=":0/2_0" function="internal">
        <lane id=":0/2_0_0" index="0" speed="13.90" length="9.50" shape="-1.65,404.75 -1.65,395.25"/>
    </edge>
    <edge id=":0/2_1" function="internal">
        <lane id=":0/2_1_0" index="0" speed="13.90" length="7.14" shape="-1.65,404.75 -1.25,401.95 -0.05,399.95 1.65,398.93"/>
    </edge>
    <edge id=":0/2_6" function="internal">
        <lane id=":0/2_6_0" index="0" speed="13.90" length="3.18" shape="1.65,398.93 1.95,398.75 4.75,398.35"/>
    </edge>
    <edge id=":0/2_2" function="internal">
        <lane id=":0/2_2_0" index="0" speed="13.90" length="5.00" shape="4.75,401.65 3.39,401.84 2.43,402.42 1.84,403.39 1.65,404.75"/>
    </edge>
    <edge id=":0/2_3" function="internal">
        <lane id=":0/2_3_0" index="0" speed="13.90" length="3.18" shape="4.75,401.65 1.95,401.25 1.65,401.07"/>
    </edge>
    <edge id=":0/2_7" function="internal">
        <lane id=":0/2_7_0" index="0" speed="13.90" length="7.14" shape="1.65,401.07 -0.05,400.05 -1.25,398.05 -1.65,395.25"/>
    </edge>
    <edge id=":0/2_4" function="internal">
        <lane id=":0/2_4_0" index="0" speed="13.90" length="5.00" shape="1.65,395.25 1.84,396.61 2.42,397.58 3.39,398.16 4.75,398.35"/>
    </edge>
    <edge id=":0/2_5" function="internal">
        <lane id=":0/2_5_0" index="0" speed="13.90" length="9.50" shape="1.65,395.25 1.65,404.75"/>
    </edge>
    <edge id=":0/3_0" function="internal">
        <lane id=":0/3_0_0" index="0" speed="13.90" length="9.50" shape="-1.65,604.75 -1.65,595.25"/>
    </edge>
    <edge id=":0/3_1" function="internal">
        <lane id=":0/3_1_0" index="0" speed="13.90" length="7.14" shape="-1.65,604.75 -1.25,601.95 -0.05,599.95 1.65,598.93"/>
    </edge>
    <edge id=":0/3_6" function="internal">
        <lane id=":0/3_6_0" index="0" speed="13.90" length="3.18" shape="1.65,598.93 1.95,598.75 4.75,598.35"/>
    </edge>
    <edge id=":0/3_2" function="internal">
        <lane id=":0/3_2_0" index="0" speed="13.90" length="5.00" shape="4.75,601.65 3.39,601.84 2.43,602.42 1.84,603.39 1.65,604.75"/>
    </edge>
    <edge id=":0/3_3" function="internal">
        <lane id=":0/3_3_0" index="0" speed="13.90" length="3.18" shape="4.75,601.65 1.95,601.25 1.65,601.07"/>
    </edge>
    <edge id=":0/3_7" function="internal">
        <lane id=":0/3_7_0" index="0" speed="13.90" length="7.14" shape="1.65,601.07 -0.05,600.05 -1.25,598.05 -1.65,595.25"/>
    </edge>
    <edge id=":0/3_4" function="internal">
        <lane id=":0/3_4_0" index="0" speed="13.90" length="5.00" shape="1.65,595.25 1.84,596.61 2.42,597.58 3.39,598.16 4.75,598.35"/>
    </edge>
    <edge id=":0/3_5" function="internal">
        <lane id=":0/3_5_0" index="0" speed="13.90" length="9.50" shape="1.65,595.25 1.65,604.75"/>
    </edge>
    <edge id=":0/4_0" function="internal">
        <lane id=":0/4_0_0" index="0" speed="13.90" length="9.50" shape="-1.65,804.75 -1.65,795.25"/>
    </edge>
    <edge id=":0/4_1" function="internal">
        <lane id=":0/4_1_0" index="0" speed="13.90" length="7.14" shape="-1.65,804.75 -1.25,801.95 -0.05,799.95 1.65,798.93"/>
    </edge>
    <edge id=":0/4_6" function="internal">
        <lane id=":0/4_6_0" index="0" speed="13.90" length="3.18" shape="1.65,798.93 1.95,798.75 4.75,798.35"/>
    </edge>
    <edge id=":0/4_2" function="internal">
        <lane id=":0/4_2_0" index="0" speed="13.90" length="5.00" shape="4.75,801.65 3.39,801.84 2.43,802.42 1.84,803.39 1.65,804.75"/>
    </edge>
    <edge id=":0/4_3" function="internal">
        <lane id=":0/4_3_0" index="0" speed="13.90" length="3.18" shape="4.75,801.65 1.95,801.25 1.65,801.07"/>
    </edge>
    <edge id=":0/4_7" function="internal">
        <lane id=":0/4_7_0" index="0" speed="13.90" length="7.14" shape="1.65,801.07 -0.05,800.05 -1.25,798.05 -1.65,795.25"/>
    </edge>
    <edge id=":0/4_4" function="internal">
        <lane id=":0/4_4_0" index="0" speed="13.90" length="5.00" shape="1.65,795.25 1.84,796.61 2.42,797.57 3.39,798.16 4.75,798.35"/>
    </edge>
    <edge id=":0/4_5" function="internal">
        <lane id=":0/4_5_0" index="0" speed="13.90" length="9.50" shape="1.65,795.25 1.65,804.75"/>
    </edge>
    <edge id=":0/5_0" function="internal">
        <lane id=":0/5_0_0" index="0" speed="13.90" length="9.50" shape="-1.65,1004.75 -1.65,995.25"/>
    </edge>
    <edge id=":0/5_1" function="internal">
        <lane id=":0/5_1_0" index="0" speed="13.90" length="7.14" shape="-1.65,1004.75 -1.25,1001.95 -0.05,999.95 1.65,998.93"/>
    </edge>
    <edge id=":0/5_6" function="internal">
        <lane id=":0/5_6_0" index="0" speed="13.90" length="3.18" shape="1.65,998.93 1.95,998.75 4.75,998.35"/>
    </edge>
    <edge id=":0/5_2" function="internal">
        <lane id=":0/5_2_0" index="0" speed="13.90" length="5.00" shape="4.75,1001.65 3.39,1001.84 2.43,1002.42 1.84,1003.39 1.65,1004.75"/>
    </edge>
    <edge id=":0/5_3" function="internal">
        <lane id=":0/5_3_0" index="0" speed="13.90" length="3.18" shape="4.75,1001.65 1.95,1001.25 1.65,1001.07"/>
    </edge>
    <edge id=":0/5_7" function="internal">
        <lane id=":0/5_7_0" index="0" speed="13.90" length="7.14" shape="1.65,1001.07 -0.05,1000.05 -1.25,998.05 -1.65,995.25"/>
    </edge>
    <edge id=":0/5_4" function="internal">
        <lane id=":0/5_4_0" index="0" speed="13.90" length="5.00" shape="1.65,995.25 1.84,996.61 2.42,997.57 3.39,998.16 4.75,998.35"/>
    </edge>
    <edge id=":0/5_5" function="internal">
        <lane id=":0/5_5_0" index="0" speed="13.90" length="9.50" shape="1.65,995.25 1.65,1004.75"/>
    </edge>
    <edge id=":0/6_0" function="internal">
        <lane id=":0/6_0_0" index="0" speed="13.90" length="9.50" shape="-1.65,1204.75 -1.65,1195.25"/>
    </edge>
    <edge id=":0/6_1" function="internal">
        <lane id=":0/6_1_0" index="0" speed="13.90" length="7.14" shape="-1.65,1204.75 -1.25,1201.95 -0.05,1199.95 1.65,1198.93"/>
    </edge>
    <edge id=":0/6_6" function="internal">
        <lane id=":0/6_6_0" index="0" speed="13.90" length="3.18" shape="1.65,1198.93 1.95,1198.75 4.75,1198.35"/>
    </edge>
    <edge id=":0/6_2" function="internal">
        <lane id=":0/6_2_0" index="0" speed="13.90" length="5.00" shape="4.75,1201.65 3.39,1201.84 2.43,1202.43 1.84,1203.39 1.65,1204.75"/>
    </edge>
    <edge id=":0/6_3" function="internal">
        <lane id=":0/6_3_0" index="0" speed="13.90" length="3.18" shape="4.75,1201.65 1.95,1201.25 1.65,1201.07"/>
    </edge>
    <edge id=":0/6_7" function="internal">
        <lane id=":0/6_7_0" index="0" speed="13.90" length="7.14" shape="1.65,1201.07 -0.05,1200.05 -1.25,1198.05 -1.65,1195.25"/>
    </edge>
    <edge id=":0/6_4" function="internal">
        <lane id=":0/6_4_0" index="0" speed="13.90" length="5.00" shape="1.65,1195.25 1.84,1196.61 2.42,1197.57 3.39,1198.16 4.75,1198.35"/>
    </edge>
    <edge id=":0/6_5" function="internal">
        <lane id=":0/6_5_0" index="0" speed="13.90" length="9.50" shape="1.65,1195.25 1.65,1204.75"/>
    </edge>
    <edge id=":0/7_0" function="internal">
        <lane id=":0/7_0_0" index="0" speed="13.90" length="9.50" shape="-1.65,1404.75 -1.65,1395.25"/>
    </edge>
    <edge id=":0/7_1" function="internal">
        <lane id=":0/7_1_0" index="0" speed="13.90" length="7.14" shape="-1.65,1404.75 -1.25,1401.95 -0.05,1399.95 1.65,1398.93"/>
    </edge>
    <edge id=":0/7_6" function="internal">
        <lane id=":0/7_6_0" index="0" speed="13.90" length="3.18" shape="1.65,1398.93 1.95,1398.75 4.75,1398.35"/>
    </edge>
    <edge id=":0/7_2" function="internal">
        <lane id=":0/7_2_0" index="0" speed="13.90" length="5.00" shape="4.75,1401.65 3.39,1401.84 2.43,1402.43 1.84,1403.39 1.65,1404.75"/>
    </edge>
    <edge id=":0/7_3" function="internal">
        <lane id=":0/7_3_0" index="0" speed="13.90" length="3.18" shape="4.75,1401.65 1.95,1401.25 1.65,1401.07"/>
    </edge>
    <edge id=":0/7_7" function="internal">
        <lane id=":0/7_7_0" index="0" speed="13.90" length="7.14" shape="1.65,1401.07 -0.05,1400.05 -1.25,1398.05 -1.65,1395.25"/>
    </edge>
    <edge id=":0/7_4" function="internal">
        <lane id=":0/7_4_0" index="0" speed="13.90" length="5.00" shape="1.65,1395.25 1.84,1396.61 2.42,1397.57 3.39,1398.16 4.75,1398.35"/>
    </edge>
    <edge id=":0/7_5" function="internal">
        <lane id=":0/7_5_0" index="0" speed="13.90" length="9.50" shape="1.65,1395.25 1.65,1404.75"/>
    </edge>
    <edge id=":0/8_0" function="internal">
        <lane id=":0/8_0_0" index="0" speed="13.90" length="9.50" shape="-1.65,1604.75 -1.65,1595.25"/>
    </edge>
    <edge id=":0/8_1" function="internal">
        <lane id=":0/8_1_0" index="0" speed="13.90" length="7.14" shape="-1.65,1604.75 -1.25,1601.95 -0.05,1599.95 1.65,1598.93"/>
    </edge>
    <edge id=":0/8_6" function="internal">
        <lane id=":0/8_6_0" index="0" speed="13.90" length="3.18" shape="1.65,1598.93 1.95,1598.75 4.75,1598.35"/>
    </edge>
    <edge id=":0/8_2" function="internal">
        <lane id=":0/8_2_0" index="0" speed="13.90" length="5.00" shape="4.75,1601.65 3.39,1601.84 2.43,1602.43 1.84,1603.39 1.65,1604.75"/>
    </edge>
    <edge id=":0/8_3" function="internal">
        <lane id=":0/8_3_0" index="0" speed="13.90" length="3.18" shape="4.75,1601.65 1.95,1601.25 1.65,1601.07"/>
    </edge>
    <edge id=":0/8_7" function="internal">
        <lane id=":0/8_7_0" index="0" speed="13.90" length="7.14" shape="1.65,1601.07 -0.05,1600.05 -1.25,1598.05 -1.65,1595.25"/>
    </edge>
    <edge id=":0/8_4" function="internal">
        <lane id=":0/8_4_0" index="0" speed="13.90" length="5.00" shape="1.65,1595.25 1.84,1596.61 2.42,1597.57 3.39,1598.16 4.75,1598.35"/>
    </edge>
    <edge id=":0/8_5" function="internal">
        <lane id=":0/8_5_0" index="0" speed="13.90" length="9.50" shape="1.65,1595.25 1.65,1604.75"/>
    </edge>
    <edge id=":0/9_0" function="internal">
        <lane id=":0/9_0_0" index="0" speed="13.90" length="7.90" shape="3.25,1801.65 1.11,1801.34 -0.43,1800.43 -1.34,1798.89 -1.65,1796.75"/>
    </edge>
    <edge id=":0/9_1" function="internal">
        <lane id=":0/9_1_0" index="0" speed="13.90" length="2.58" shape="1.65,1796.75 1.75,1797.45 2.05,1797.95 2.55,1798.25 3.25,1798.35"/>
    </edge>
    <edge id=":1/0_0" function="internal">
        <lane id=":1/0_0_0" index="0" speed="13.90" length="5.00" shape="198.35,4.75 198.16,3.39 197.57,2.43 196.61,1.84 195.25,1.65"/>
    </edge>
    <edge id=":1/0_1" function="internal">
        <lane id=":1/0_1_0" index="0" speed="13.90" length="3.18" shape="198.35,4.75 198.75,1.95 198.93,1.65"/>
    </edge>
    <edge id=":1/0_6" function="internal">
        <lane id=":1/0_6_0" index="0" speed="13.90" length="7.14" shape="198.93,1.65 199.95,-0.05 201.95,-1.25 204.75,-1.65"/>
    </edge>
    <edge id=":1/0_2" function="internal">
        <lane id=":1/0_2_0" index="0" speed="13.90" length="5.00" shape="204.75,1.65 203.39,1.84 202.42,2.42 201.84,3.39 201.65,4.75"/>
    </edge>
    <edge id=":1/0_3" function="internal">
        <lane id=":1/0_3_0" index="0" speed="13.90" length="9.50" shape="204.75,1.65 195.25,1.65"/>
    </edge>
    <edge id=":1/0_4" function="internal">
        <lane id=":1/0_4_0" index="0" speed="13.90" length="9.50" shape="195.25,-1.65 204.75,-1.65"/>
    </edge>
    <edge id=":1/0_5" function="internal">
        <lane id=":1/0_5_0" index="0" speed="13.90" length="7.14" shape="195.25,-1.65 198.05,-1.25 200.05,-0.05 201.07,1.65"/>
    </edge>
    <edge id=":1/0_7" function="internal">
        <lane id=":1/0_7_0" index="0" speed="13.90" length="3.18" shape="201.07,1.65 201.25,1.95 201.65,4.75"/>
    </edge>
    <edge id=":1/1_0" function="internal">
        <lane id=":1/1_0_0" index="0" speed="13.90" length="5.00" shape="198.35,204.75 198.16,203.39 197.57,202.42 196.61,201.84 195.25,201.65"/>
    </edge>
    <edge id=":1/1_1" function="internal">
        <lane id=":1/1_1_0" index="0" speed="13.90" length="9.50" shape="198.35,204.75 198.35,195.25"/>
    </edge>
    <edge id=":1/1_2" function="internal">
        <lane id=":1/1_2_0" index="0" speed="13.90" length="3.18" shape="198.35,204.75 198.75,201.95 198.93,201.65"/>
    </edge>
    <edge id=":1/1_12" function="internal">
        <lane id=":1/1_12_0" index="0" speed="13.90" length="7.14" shape="198.93,201.65 199.95,199.95 201.95,198.75 204.75,198.35"/>
    </edge>
    <edge id=":1/1_3" function="internal">
        <lane id=":1/1_3_0" index="0" speed="13.90" length="5.00" shape="204.75,201.65 203.39,201.84 202.42,202.43 201.84,203.39 201.65,204.75"/>
    </edge>
    <edge id=":1/1_4" function="internal">
        <lane id=":1/1_4_0" index="0" speed="13.90" length="9.50" shape="204.75,201.65 195.25,201.65"/>
    </edge>
    <edge id=":1/1_5" function="internal">
        <lane id=":1/1_5_0" index="0" speed="13.90" length="3.18" shape="204.75,201.65 201.95,201.25 201.65,201.07"/>
    </edge>
    <edge id=":1/1_13" function="internal">
        <lane id=":1/1_13_0" index="0" speed="13.90" length="7.14" shape="201.65,201.07 199.95,200.05 198.75,198.05 198.35,195.25"/>
    </edge>
    <edge id=":1/1_6" function="internal">
        <lane id=":1/1_6_0" index="0" speed="13.90" length="5.00" shape="201.65,195.25 201.84,196.61 202.43,197.58 203.39,198.16 204.75,198.35"/>
    </edge>
    <edge id=":1/1_7" function="internal">
        <lane id=":1/1_7_0" index="0" speed="13.90" length="9.50" shape="201.65,195.25 201.65,204.75"/>
    </edge>
    <edge id=":1/1_8" function="internal">
        <lane id=":1/1_8_0" index="0" speed="13.90" length="3.18" shape="201.65,195.25 201.25,198.05 201.07,198.35"/>
    </edge>
    <edge id=":1/1_14" function="internal">
        <lane id=":1/1_14_0" index="0" speed="13.90" length="7.14" shape="201.07,198.35 200.05,200.05 198.05,201.25 195.25,201.65"/>
    </edge>
    <edge id=":1/1_9" function="internal">
        <lane id=":1/1_9_0" index="0" speed="13.90" length="5.00" shape="195.25,198.35 196.61,198.16 197.58,197.57 198.16,196.61 198.35,195.25"/>
    </edge>
    <edge id=":1/1_10" function="internal">
        <lane id=":1/1_10_0" index="0" speed="13.90" length="9.50" shape="195.25,198.35 204.75,198.35"/>
    </edge>
    <edge id=":1/1_11" function="internal">
        <lane id=":1/1_11_0" index="0" speed="13.90" length="3.18" shape="195.25,198.35 198.05,198.75 198.35,198.93"/>
    </edge>
    <edge id=":1/1_15" function="internal">
        <lane id=":1/1_15_0" index="0" speed="13.90" length="7.14" shape="198.35,198.93 200.05,199.95 201.25,201.95 201.65,204.75"/>
    </edge>
    <edge id=":1/2_0" function="internal">
        <lane id=":1/2_0_0" index="0" speed="13.90" length="5.00" shape="198.35,404.75 198.16,403.39 197.57,402.42 196.61,401.84 195.25,401.65"/>
    </edge>
    <edge id=":1/2_1" function="internal">
        <lane id=":1/2_1_0" index="0" speed="13.90" length="9.50" shape="198.35,404.75 198.35,395.25"/>
    </edge>
    <edge id=":1/2_2" function="internal">
        <lane id=":1/2_2_0" index="0" speed="13.90" length="3.18" shape="198.35,404.75 198.75,401.95 198.93,401.65"/>
    </edge>
    <edge id=":1/2_12" function="internal">
        <lane id=":1/2_12_0" index="0" speed="13.90" length="7.14" shape="198.93,401.65 199.95,399.95 201.95,398.75 204.75,398.35"/>
    </edge>
    <edge id=":1/2_3" function="internal">
        <lane id=":1/2_3_0" index="0" speed="13.90" length="5.00" shape="204.75,401.65 203.39,401.84 202.42,402.42 201.84,403.39 201.65,404.75"/>
    </edge>
    <edge id=":1/2_4" function="internal">
        <lane id=":1/2_4_0" index="0" speed="13.90" length="9.50" shape="204.75,401.65 195.25,401.65"/>
    </edge>
    <edge id=":1/2_5" function="internal">
        <lane id=":1/2_5_0" index="0" speed="13.90" length="3.18" shape="204.75,401.65 201.95,401.25 201.65,401.07"/>
    </edge>
    <edge id=":1/2_13" function="internal">
        <lane id=":1/2_13_0" index="0" speed="13.90" length="7.14" shape="201.65,401.07 199.95,400.05 198.75,398.05 198.35,395.25"/>
    </edge>
    <edge id=":1/2_6" function="internal">
        <lane id=":1/2_6_0" index="0" speed="13.90" length="5.00" shape="201.65,395.25 201.84,396.61 202.43,397.58 203.39,398.16 204.75,398.35"/>
    </edge>
    <edge id=":1/2_7" function="internal">
        <lane id=":1/2_7_0" index="0" speed="13.90" length="9.50" shape="201.65,395.25 201.65,404.75"/>
    </edge>
    <edge id=":1/2_8" function="internal">
        <lane id=":1/2_8_0" index="0" speed="13.90" length="3.18" shape="201.65,395.25 201.25,398.05 201.07,398.35"/>
    </edge>
    <edge id=":1/2_14" function="internal">
        <lane id=":1/2_14_0" index="0" speed="13.90" length="7.14" shape="201.07,398.35 200.05,400.05 198.05,401.25 195.25,401.65"/>
    </edge>
    <edge id=":1/2_9" function="internal">
        <lane id=":1/2_9_0" index="0" speed="13.90" length="5.00" shape="195.25,398.35 196.61,398.16 197.58,397.58 198.16,396.61 198.35,395.25"/>
    </edge>
    <edge id=":1/2_10" function="internal">
        <lane id=":1/2_10_0" index="0" speed="13.90" length="9.50" shape="195.25,398.35 204.75,398.35"/>
    </edge>
    <edge id=":1/2_11" function="internal">
        <lane id=":1/2_11_0" index="0" speed="13.90" length="3.18" shape="195.25,398.35 198.05,398.75 198.35,398.93"/>
    </edge>
    <edge id=":1/2_15" function="internal">
        <lane id=":1/2_15_0" index="0" speed="13.90" length="7.14" shape="198.35,398.93 200.05,399.95 201.25,401.95 201.65,404.75"/>
    </edge>
    <edge id=":1/3_0" function="internal">
        <lane id=":1/3_0_0" index="0" speed="13.90" length="5.00" shape="198.35,604.75 198.16,603.39 197.57,602.42 196.61,601.84 195.25,601.65"/>
    </edge>
    <edge id=":1/3_1" function="internal">
        <lane id=":1/3_1_0" index="0" speed="13.90" length="9.50" shape="198.35,604.75 198.35,595.25"/>
    </edge>
    <edge id=":1/3_2" function="internal">
        <lane id=":1/3_2_0" index="0" speed="13.90" length="3.18" shape="198.35,604.75 198.75,601.95 198.93,601.65"/>
    </edge>
    <edge id=":1/3_12" function="internal">
        <lane id=":1/3_12_0" index="0" speed="13.90" length="7.14" shape="198.93,601.65 199.95,599.95 201.95,598.75 204.75,598.35"/>
    </edge>
    <edge id=":1/3_3" function="internal">
        <lane id=":1/3_3_0" index="0" speed="13.90" length="5.00" shape="204.75,601.65 203.39,601.84 202.42,602.42 201.84,603.39 201.65,604.75"/>
    </edge>
    <edge id=":1/3_4" function="internal">
        <lane id=":1/3_4_0" index="0" speed="13.90" length="9.50" shape="204.75,601.65 195.25,601.65"/>
    </edge>
    <edge id=":1/3_5" function="internal">
        <lane id=":1/3_5_0" index="0" speed="13.90" length="3.18" shape="204.75,601.65 201.95,601.25 201.65,601.07"/>
    </edge>
    <edge id=":1/3_13" function="internal">
        <lane id=":1/3_13_0" index="0" speed="13.90" length="7.14" shape="201.65,601.07 199.95,600.05 198.75,598.05 198.35,595.25"/>
    </edge>
    <edge id=":1/3_6" function="internal">
        <lane id=":1/3_6_0" index="0" speed="13.90" length="5.00" shape="201.65,595.25 201.84,596.61 202.43,597.58 203.39,598.16 204.75,598.35"/>
    </edge>
    <edge id=":1/3_7" function="internal">
        <lane id=":1/3_7_0" index="0" speed="13.90" length="9.50" shape="201.65,595.25 201.65,604.75"/>
    </edge>
    <edge id=":1/3_8" function="internal">
        <lane id=":1/3_8_0" index="0" speed="13.90" length="3.18" shape="201.65,595.25 201.25,598.05 201.07,598.35"/>
    </edge>
    <edge id=":1/3_14" function="internal">
        <lane id=":1/3_14_0" index="0" speed="13.90" length="7.14" shape="201.07,598.35 200.05,600.05 198.05,601.25 195.25,601.65"/>
    </edge>
    <edge id=":1/3_9" function="internal">
        <lane id=":1/3_9_0" index="0" speed="13.90" length="5.00" shape="195.25,598.35 196.61,598.16 197.58,597.58 198.16,596.61 198.35,595.25"/>
    </edge>
    <edge id=":1/3_10" function="internal">
        <lane id=":1/3_10_0" index="0" speed="13.90" length="9.50" shape="195.25,598.35 204.75,598.35"/>
    </edge>
    <edge id=":1/3_11" function="internal">
        <lane id=":1/3_11_0" index="0" speed="13.90" length="3.18" shape="195.25,598.35 198.05,598.75 198.35,598.93"/>
    </edge>
    <edge id=":1/3_15" function="internal">
        <lane id=":1/3_15_0" index="0" speed="13.90" length="7.14" shape="198.35,598.93 200.05,599.95 201.25,601.95 201.65,604.75"/>
    </edge>
    <edge id=":1/4_0" function="internal">
        <lane id=":1/4_0_0" index="0" speed="13.90" length="5.00" shape="198.35,804.75 198.16,803.39 197.57,802.43 196.61,801.84 195.25,801.65"/>
    </edge>
    <edge id=":1/4_1" function="internal">
        <lane id=":1/4_1_0" index="0" speed="13.90" length="9.50" shape="198.35,804.75 198.35,795.25"/>
    </edge>
    <edge id=":1/4_2" function="internal">
        <lane id=":1/4_2_0" index="0" speed="13.90" length="3.18" shape="198.35,804.75 198.75,801.95 198.93,801.65"/>
    </edge>
    <edge id=":1/4_12" function="internal">
        <lane id=":1/4_12_0" index="0" speed="13.90" length="7.14" shape="198.93,801.65 199.95,799.95 201.95,798.75 204.75,798.35"/>
    </edge>
    <edge id=":1/4_3" function="internal">
        <lane id=":1/4_3_0" index="0" speed="13.90" length="5.00" shape="204.75,801.65 203.39,801.84 202.42,802.42 201.84,803.39 201.65,804.75"/>
    </edge>
    <edge id=":1/4_4" function="internal">
        <lane id=":1/4_4_0" index="0" speed="13.90" length="9.50" shape="204.75,801.65 195.25,801.65"/>
    </edge>
    <edge id=":1/4_5" function="internal">
        <lane id=":1/4_5_0" index="0" speed="13.90" length="3.18" shape="204.75,801.65 201.95,801.25 201.65,801.07"/>
    </edge>
    <edge id=":1/4_13" function="internal">
        <lane id=":1/4_13_0" index="0" speed="13.90" length="7.14" shape="201.65,801.07 199.95,800.05 198.75,798.05 198.35,795.25"/>
    </edge>
    <edge id=":1/4_6" function="internal">
        <lane id=":1/4_6_0" index="0" speed="13.90" length="5.00" shape="201.65,795.25 201.84,796.61 202.43,797.57 203.39,798.16 204.75,798.35"/>
    </edge>
    <edge id=":1/4_7" function="internal">
        <lane id=":1/4_7_0" index="0" speed="13.90" length="9.50" shape="201.65,795.25 201.65,804.75"/>
    </edge>
    <edge id=":1/4_8" function="internal">
        <lane id=":1/4_8_0" index="0" speed="13.90" length="3.18" shape="201.65,795.25 201.25,798.05 201.07,798.35"/>
    </edge>
    <edge id=":1/4_14" function="internal">
        <lane id=":1/4_14_0" index="0" speed="13.90" length="7.14" shape="201.07,798.35 200.05,800.05 198.05,801.25 195.25,801.65"/>
    </edge>
    <edge id=":1/4_9" function="internal">
        <lane id=":1/4_9_0" index="0" speed="13.90" length="5.00" shape="195.25,798.35 196.61,798.16 197.58,797.58 198.16,796.61 198.35,795.25"/>
    </edge>
    <edge id=":1/4_10" function="internal">
        <lane id=":1/4_10_0" index="0" speed="13.90" length="9.50" shape="195.25,798.35 204.75,798.35"/>
    </edge>
    <edge id=":1/4_11" function="internal">
        <lane id=":1/4_11_0" index="0" speed="13.90" length="3.18" shape="195.25,798.35 198.05,798.75 198.35,798.93"/>
    </edge>
    <edge id=":1/4_15" function="internal">
        <lane id=":1/4_15_0" index="0" speed="13.90" length="7.14" shape="198.35,798.93 200.05,799.95 201.25,801.95 201.65,804.75"/>
    </edge>
    <edge id=":1/5_0" function="internal">
        <lane id=":1/5_0_0" index="0" speed="13.90" length="5.00" shape="198.35,1004.75 198.16,1003.39 197.57,1002.43 196.61,1001.84 195.25,1001.65"/>
    </edge>
    <edge id=":1/5_1" function="internal">
        <lane id=":1/5_1_0" index="0" speed="13.90" length="9.50" shape="198.35,1004.75 198.35,995.25"/>
    </edge>
    <edge id=":1/5_2" function="internal">
        <lane id=":1/5_2_0" index="0" speed="13.90" length="3.18" shape="198.35,1004.75 198.75,1001.95 198.93,1001.65"/>
    </edge>
    <edge id=":1/5_12" function="internal">
        <lane id=":1/5_12_0" index="0" speed="13.90" length="7.14" shape="198.93,1001.65 199.95,999.95 201.95,998.75 204.75,998.35"/>
    </edge>
    <edge id=":1/5_3" function="internal">
        <lane id=":1/5_3_0" index="0" speed="13.90" length="5.00" shape="204.75,1001.65 203.39,1001.84 202.42,1002.42 201.84,1003.39 201.65,1004.75"/>
    </edge>
    <edge id=":1/5_4" function="internal">
        <lane id=":1/5_4_0" index="0" speed="13.90" length="9.50" shape="204.75,1001.65 195.25,1001.65"/>
    </edge>
    <edge id=":1/5_5" function="internal">
        <lane id=":1/5_5_0" index="0" speed="13.90" length="3.18" shape="204.75,1001.65 201.95,1001.25 201.65,1001.07"/>
    </edge>
    <edge id=":1/5_13" function="internal">
        <lane id=":1/5_13_0" index="0" speed="13.90" length="7.14" shape="201.65,1001.07 199.95,1000.05 198.75,998.05 198.35,995.25"/>
    </edge>
    <edge id=":1/5_6" function="internal">
        <lane id=":1/5_6_0" index="0" speed="13.90" length="5.00" shape="201.65,995.25 201.84,996.61 202.43,997.57 203.39,998.16 204.75,998.35"/>
    </edge>
    <edge id=":1/5_7" function="internal">
        <lane id=":1/5_7_0" index="0" speed="13.90" length="9.50" shape="201.65,995.25 201.65,1004.75"/>
    </edge>
    <edge id=":1/5_8" function="internal">
        <lane id=":1/5_8_0" index="0" speed="13.90" length="3.18" shape="201.65,995.25 201.25,998.05 201.07,998.35"/>
    </edge>
    <edge id=":1/5_14" function="internal">
        <lane id=":1/5_14_0" index="0" speed="13.90" length="7.14" shape="201.07,998.35 200.05,1000.05 198.05,1001.25 195.25,1001.65"/>
    </edge>
    <edge id=":1/5_9" function="internal">
        <lane id=":1/5_9_0" index="0" speed="13.90" length="5.00" shape="195.25,998.35 196.61,998.16 197.58,997.58 198.16,996.61 198.35,995.25"/>
    </edge>
    <edge id=":1/5_10" function="internal">
        <lane id=":1/5_10_0" index="0" speed="13.90" length="9.50" shape="195.25,998.35 204.75,998.35"/>
    </edge>
    <edge id=":1/5_11" function="internal">
        <lane id=":1/5_11_0" index="0" speed="13.90" length="3.18" shape="195.25,998.35 198.05,998.75 198.35,998.93"/>
    </edge>
    <edge id=":1/5_15" function="internal">
        <lane id=":1/5_15_0" index="0" speed="13.90" length="7.14" shape="198.35,998.93 200.05,999.95 201.25,1001.95 201.65,1004.75"/>
    </edge>
    <edge id=":1/6_0" function="internal">
        <lane id=":1/6_0_0" index="0" speed="13.90" length="5.00" shape="198.35,1204.75 198.16,1203.39 197.57,1202.43 196.61,1201.84 195.25,1201.65"/>
    </edge>
    <edge id=":1/6_1" function="internal">
        <lane id=":1/6_1_0" index="0" speed="13.90" length="9.50" shape="198.35,1204.75 198.35,1195.25"/>
    </edge>
    <edge id=":1/6_2" function="internal">
        <lane id=":1/6_2_0" index="0" speed="13.90" length="3.18" shape="198.35,1204.75 198.75,1201.95 198.93,1201.65"/>
    </edge>
    <edge id=":1/6_12" function="internal">
        <lane id=":1/6_12_0" index="0" speed="13.90" length="7.14" shape="198.93,1201.65 199.95,1199.95 201.95,1198.75 204.75,1198.35"/>
    </edge>
    <edge id=":1/6_3" function="internal">
        <lane id=":1/6_3_0" index="0" speed="13.90" length="5.00" shape="204.75,1201.65 203.39,1201.84 202.42,1202.43 201.84,1203.39 201.65,1204.75"/>
    </edge>
    <edge id=":1/6_4" function="internal">