<?xml version="1.0" encoding="UTF-8"?>

<!-- generated on Mon Dec  8 08:09:12 2014 by SUMO netgenerate Version 0.19.0
<?xml version="1.0" encoding="UTF-8"?>

<configuration xmlns:xsi="http://www.w3.org/2001/XMLSchema-instance" xsi:noNamespaceSchemaLocation="http://sumo-sim.org/xsd/netgenerateConfiguration.xsd">

    <grid_network>
        <grid value="true"/>
        <grid.x-number value="10"/>
        <grid.y-number value="10"/>
        <grid.x-length value="200"/>
        <grid.y-length value="200"/>
    </grid_network>

    <output>
        <output-file value="net.net.xml"/>
        <plain-output-prefix value="nodes"/>
    </output>

    <tls_building>
        <tls.guess value="true"/>
    </tls_building>

    <processing>
        <no-turnarounds value="true"/>
    </processing>

</configuration>
-->

<connections version="0.13" xmlns:xsi="http://www.w3.org/2001/XMLSchema-instance" xsi:noNamespaceSchemaLocation="http://sumo-sim.org/xsd/connections_file.xsd">
    <connection from="0/0to0/1" to="0/1to1/1" fromLane="0" toLane="0"/>
    <connection from="0/0to0/1" to="0/1to0/2" fromLane="0" toLane="0"/>

    <connection from="0/0to1/0" to="1/0to2/0" fromLane="0" toLane="0"/>
    <connection from="0/0to1/0" to="1/0to1/1" fromLane="0" toLane="0"/>

    <connection from="0/1to0/0" to="0/0to1/0" fromLane="0" toLane="0"/>

    <connection from="0/1to0/2" to="0/2to1/2" fromLane="0" toLane="0"/>
    <connection from="0/1to0/2" to="0/2to0/3" fromLane="0" toLane="0"/>

    <connection from="0/1to1/1" to="1/1to1/0" fromLane="0" toLane="0"/>
    <connection from="0/1to1/1" to="1/1to2/1" fromLane="0" toLane="0"/>
    <connection from="0/1to1/1" to="1/1to1/2" fromLane="0" toLane="0"/>

    <connection from="0/2to0/1" to="0/1to0/0" fromLane="0" toLane="0"/>
    <connection from="0/2to0/1" to="0/1to1/1" fromLane="0" toLane="0"/>

    <connection from="0/2to0/3" to="0/3to1/3" fromLane="0" toLane="0"/>
    <connection from="0/2to0/3" to="0/3to0/4" fromLane="0" toLane="0"/>

    <connection from="0/2to1/2" to="1/2to1/1" fromLane="0" toLane="0"/>
    <connection from="0/2to1/2" to="1/2to2/2" fromLane="0" toLane="0"/>
    <connection from="0/2to1/2" to="1/2to1/3" fromLane="0" toLane="0"/>

    <connection from="0/3to0/2" to="0/2to0/1" fromLane="0" toLane="0"/>
    <connection from="0/3to0/2" to="0/2to1/2" fromLane="0" toLane="0"/>

    <connection from="0/3to0/4" to="0/4to1/4" fromLane="0" toLane="0"/>
    <connection from="0/3to0/4" to="0/4to0/5" fromLane="0" toLane="0"/>

    <connection from="0/3to1/3" to="1/3to1/2" fromLane="0" toLane="0"/>
    <connection from="0/3to1/3" to="1/3to2/3" fromLane="0" toLane="0"/>
    <connection from="0/3to1/3" to="1/3to1/4" fromLane="0" toLane="0"/>

    <connection from="0/4to0/3" to="0/3to0/2" fromLane="0" toLane="0"/>
    <connection from="0/4to0/3" to="0/3to1/3" fromLane="0" toLane="0"/>

    <connection from="0/4to0/5" to="0/5to1/5" fromLane="0" toLane="0"/>
    <connection from="0/4to0/5" to="0/5to0/6" fromLane="0" toLane="0"/>

    <connection from="0/4to1/4" to="1/4to1/3" fromLane="0" toLane="0"/>
    <connection from="0/4to1/4" to="1/4to2/4" fromLane="0" toLane="0"/>
    <connection from="0/4to1/4" to="1/4to1/5" fromLane="0" toLane="0"/>

    <connection from="0/5to0/4" to="0/4to0/3" fromLane="0" toLane="0"/>
    <connection from="0/5to0/4" to="0/4to1/4" fromLane="0" toLane="0"/>

    <connection from="0/5to0/6" to="0/6to1/6" fromLane="0" toLane="0"/>
    <connection from="0/5to0/6" to="0/6to0/7" fromLane="0" toLane="0"/>

    <connection from="0/5to1/5" to="1/5to1/4" fromLane="0" toLane="0"/>
    <connection from="0/5to1/5" to="1/5to2/5" fromLane="0" toLane="0"/>
    <connection from="0/5to1/5" to="1/5to1/6" fromLane="0" toLane="0"/>

    <connection from="0/6to0/5" to="0/5to0/4" fromLane="0" toLane="0"/>
    <connection from="0/6to0/5" to="0/5to1/5" fromLane="0" toLane="0"/>

    <connection from="0/6to0/7" to="0/7to1/7" fromLane="0" toLane="0"/>
    <connection from="0/6to0/7" to="0/7to0/8" fromLane="0" toLane="0"/>

    <connection from="0/6to1/6" to="1/6to1/5" fromLane="0" toLane="0"/>
    <connection from="0/6to1/6" to="1/6to2/6" fromLane="0" toLane="0"/>
    <connection from="0/6to1/6" to="1/6to1/7" fromLane="0" toLane="0"/>

    <connection from="0/7to0/6" to="0/6to0/5" fromLane="0" toLane="0"/>
    <connection from="0/7to0/6" to="0/6to1/6" fromLane="0" toLane="0"/>

    <connection from="0/7to0/8" to="0/8to1/8" fromLane="0" toLane="0"/>
    <connection from="0/7to0/8" to="0/8to0/9" fromLane="0" toLane="0"/>

    <connection from="0/7to1/7" to="1/7to1/6" fromLane="0" toLane="0"/>
    <connection from="0/7to1/7" to="1/7to2/7" fromLane="0" toLane="0"/>
    <connection from="0/7to1/7" to="1/7to1/8" fromLane="0" toLane="0"/>

    <connection from="0/8to0/7" to="0/7to0/6" fromLane="0" toLane="0"/>
    <connection from="0/8to0/7" to="0/7to1/7" fromLane="0" toLane="0"/>

    <connection from="0/8to0/9" to="0/9to1/9" fromLane="0" toLane="0"/>

    <connection from="0/8to1/8" to="1/8to1/7" fromLane="0" toLane="0"/>
    <connection from="0/8to1/8" to="1/8to2/8" fromLane="0" toLane="0"/>
    <connection from="0/8to1/8" to="1/8to1/9" fromLane="0" toLane="0"/>

    <connection from="0/9to0/8" to="0/8to0/7" fromLane="0" toLane="0"/>
    <connection from="0/9to0/8" to="0/8to1/8" fromLane="0" toLane="0"/>

    <connection from="0/9to1/9" to="1/9to1/8" fromLane="0" toLane="0"/>
    <connection from="0/9to1/9" to="1/9to2/9" fromLane="0" toLane="0"/>

    <connection from="1/0to0/0" to="0/0to0/1" fromLane="0" toLane="0"/>

    <connection from="1/0to1/1" to="1/1to2/1" fromLane="0" toLane="0"/>
    <connection from="1/0to1/1" to="1/1to1/2" fromLane="0" toLane="0"/>
    <connection from="1/0to1/1" to="1/1to0/1" fromLane="0" toLane="0"/>

    <connection from="1/0to2/0" to="2/0to3/0" fromLane="0" toLane="0"/>
    <connection from="1/0to2/0" to="2/0to2/1" fromLane="0" toLane="0"/>

    <connection from="1/1to0/1" to="0/1to0/2" fromLane="0" toLane="0"/>
    <connection from="1/1to0/1" to="0/1to0/0" fromLane="0" toLane="0"/>

    <connection from="1/1to1/0" to="1/0to0/0" fromLane="0" toLane="0"/>
    <connection from="1/1to1/0" to="1/0to2/0" fromLane="0" toLane="0"/>

    <connection from="1/1to1/2" to="1/2to2/2" fromLane="0" toLane="0"/>
    <connection from="1/1to1/2" to="1/2to1/3" fromLane="0" toLane="0"/>
    <connection from="1/1to1/2" to="1/2to0/2" fromLane="0" toLane="0"/>

    <connection from="1/1to2/1" to="2/1to2/0" fromLane="0" toLane="0"/>
    <connection from="1/1to2/1" to="2/1to3/1" fromLane="0" toLane="0"/>
    <connection from="1/1to2/1" to="2/1to2/2" fromLane="0" toLane="0"/>

    <connection from="1/2to0/2" to="0/2to0/3" fromLane="0" toLane="0"/>
    <connection from="1/2to0/2" to="0/2to0/1" fromLane="0" toLane="0"/>

    <connection from="1/2to1/1" to="1/1to0/1" fromLane="0" toLane="0"/>
    <connection from="1/2to1/1" to="1/1to1/0" fromLane="0" toLane="0"/>
    <connection from="1/2to1/1" to="1/1to2/1" fromLane="0" toLane="0"/>

    <connection from="1/2to1/3" to="1/3to2/3" fromLane="0" toLane="0"/>
    <connection from="1/2to1/3" to="1/3to1/4" fromLane="0" toLane="0"/>
    <connection from="1/2to1/3" to="1/3to0/3" fromLane="0" toLane="0"/>

    <connection from="1/2to2/2" to="2/2to2/1" fromLane="0" toLane="0"/>
    <connection from="1/2to2/2" to="2/2to3/2" fromLane="0" toLane="0"/>
    <connection from="1/2to2/2" to="2/2to2/3" fromLane="0" toLane="0"/>

    <connection from="1/3to0/3" to="0/3to0/4" fromLane="0" toLane="0"/>
    <connection from="1/3to0/3" to="0/3to0/2" fromLane="0" toLane="0"/>

    <connection from="1/3to1/2" to="1/2to0/2" fromLane="0" toLane="0"/>
    <connection from="1/3to1/2" to="1/2to1/1" fromLane="0" toLane="0"/>
    <connection from="1/3to1/2" to="1/2to2/2" fromLane="0" toLane="0"/>

    <connection from="1/3to1/4" to="1/4to2/4" fromLane="0" toLane="0"/>
    <connection from="1/3to1/4" to="1/4to1/5" fromLane="0" toLane="0"/>
    <connection from="1/3to1/4" to="1/4to0/4" fromLane="0" toLane="0"/>

    <connection from="1/3to2/3" to="2/3to2/2" fromLane="0" toLane="0"/>
    <connection from="1/3to2/3" to="2/3to3/3" fromLane="0" toLane="0"/>
    <connection from="1/3to2/3" to="2/3to2/4" fromLane="0" toLane="0"/>

    <connection from="1/4to0/4" to="0/4to0/5" fromLane="0" toLane="0"/>
    <connection from="1/4to0/4" to="0/4to0/3" fromLane="0" toLane="0"/>

    <connection from="1/4to1/3" to="1/3to0/3" fromLane="0" toLane="0"/>
    <connection from="1/4to1/3" to="1/3to1/2" fromLane="0" toLane="0"/>
    <connection from="1/4to1/3" to="1/3to2/3" fromLane="0" toLane="0"/>

    <connection from="1/4to1/5" to="1/5to2/5" fromLane="0" toLane="0"/>
    <connection from="1/4to1/5" to="1/5to1/6" fromLane="0" toLane="0"/>
    <connection from="1/4to1/5" to="1/5to0/5" fromLane="0" toLane="0"/>

    <connection from="1/4to2/4" to="2/4to2/3" fromLane="0" toLane="0"/>
    <connection from="1/4to2/4" to="2/4to3/4" fromLane="0" toLane="0"/>
    <connection from="1/4to2/4" to="2/4to2/5" fromLane="0" toLane="0"/>

    <connection from="1/5to0/5" to="0/5to0/6" fromLane="0" toLane="0"/>
    <connection from="1/5to0/5" to="0/5to0/4" fromLane="0" toLane="0"/>

    <connection from="1/5to1/4" to="1/4to0/4" fromLane="0" toLane="0"/>
    <connection from="1/5to1/4" to="1/4to1/3" fromLane="0" toLane="0"/>
    <connection from="1/5to1/4" to="1/4to2/4" fromLane="0" toLane="0"/>

    <connection from="1/5to1/6" to="1/6to2/6" fromLane="0" toLane="0"/>
    <connection from="1/5to1/6" to="1/6to1/7" fromLane="0" toLane="0"/>
    <connection from="1/5to1/6" to="1/6to0/6" fromLane="0" toLane="0"/>

    <connection from="1/5to2/5" to="2/5to2/4" fromLane="0" toLane="0"/>
    <connection from="1/5to2/5" to="2/5to3/5" fromLane="0" toLane="0"/>
    <connection from="1/5to2/5" to="2/5to2/6" fromLane="0" toLane="0"/>

    <connection from="1/6to0/6" to="0/6to0/7" fromLane="0" toLane="0"/>
    <connection from="1/6to0/6" to="0/6to0/5" fromLane="0" toLane="0"/>

    <connection from="1/6to1/5" to="1/5to0/5" fromLane="0" toLane="0"/>
    <connection from="1/6to1/5" to="1/5to1/4" fromLane="0" toLane="0"/>
    <connection from="1/6to1/5" to="1/5to2/5" fromLane="0" toLane="0"/>

    <connection from="1/6to1/7" to="1/7to2/7" fromLane="0" toLane="0"/>
    <connection from="1/6to1/7" to="1/7to1/8" fromLane="0" toLane="0"/>
    <connection from="1/6to1/7" to="1/7to0/7" fromLane="0" toLane="0"/>

    <connection from="1/6to2/6" to="2/6to2/5" fromLane="0" toLane="0"/>
    <connection from="1/6to2/6" to="2/6to3/6" fromLane="0" toLane="0"/>
    <connection from="1/6to2/6" to="2/6to2/7" fromLane="0" toLane="0"/>

    <connection from="1/7to0/7" to="0/7to0/8" fromLane="0" toLane="0"/>
    <connection from="1/7to0/7" to="0/7to0/6" fromLane="0" toLane="0"/>

    <connection from="1/7to1/6" to="1/6to0/6" fromLane="0" toLane="0"/>
    <connection from="1/7to1/6" to="1/6to1/5" fromLane="0" toLane="0"/>
    <connection from="1/7to1/6" to="1/6to2/6" fromLane="0" toLane="0"/>

    <connection from="1/7to1/8" to="1/8to2/8" fromLane="0" toLane="0"/>
    <connection from="1/7to1/8" to="1/8to1/9" fromLane="0" toLane="0"/>
    <connection from="1/7to1/8" to="1/8to0/8" fromLane="0" toLane="0"/>

    <connection from="1/7to2/7" to="2/7to2/6" fromLane="0" toLane="0"/>
    <connection from="1/7to2/7" to="2/7to3/7" fromLane="0" toLane="0"/>
    <connection from="1/7to2/7" to="2/7to2/8" fromLane="0" toLane="0"/>

    <connection from="1/8to0/8" to="0/8to0/9" fromLane="0" toLane="0"/>
    <connection from="1/8to0/8" to="0/8to0/7" fromLane="0" toLane="0"/>

    <connection from="1/8to1/7" to="1/7to0/7" fromLane="0" toLane="0"/>
    <connection from="1/8to1/7" to="1/7to1/6" fromLane="0" toLane="0"/>
    <connection from="1/8to1/7" to="1/7to2/7" fromLane="0" toLane="0"/>

    <connection from="1/8to1/9" to="1/9to2/9" fromLane="0" toLane="0"/>
    <connection from="1/8to1/9" to="1/9to0/9" fromLane="0" toLane="0"/>

    <connection from="1/8to2/8" to="2/8to2/7" fromLane="0" toLane="0"/>
    <connection from="1/8to2/8" to="2/8to3/8" fromLane="0" toLane="0"/>
    <connection from="1/8to2/8" to="2/8to2/9" fromLane="0" toLane="0"/>

    <connection from="1/9to0/9" to="0/9to0/8" fromLane="0" toLane="0"/>

    <connection from="1/9to1/8" to="1/8to0/8" fromLane="0" toLane="0"/>
    <connection from="1/9to1/8" to="1/8to1/7" fromLane="0" toLane="0"/>
    <connection from="1/9to1/8" to="1/8to2/8" fromLane="0" toLane="0"/>

    <connection from="1/9to2/9" to="2/9to2/8" fromLane="0" toLane="0"/>
    <connection from="1/9to2/9" to="2/9to3/9" fromLane="0" toLane="0"/>

    <connection from="2/0to1/0" to="1/0to1/1" fromLane="0" toLane="0"/>
    <connection from="2/0to1/0" to="1/0to0/0" fromLane="0" toLane="0"/>

    <connection from="2/0to2/1" to="2/1to3/1" fromLane="0" toLane="0"/>
    <connection from="2/0to2/1" to="2/1to2/2" fromLane="0" toLane="0"/>
    <connection from="2/0to2/1" to="2/1to1/1" fromLane="0" toLane="0"/>

    <connection from="2/0to3/0" to="3/0to4/0" fromLane="0" toLane="0"/>
    <connection from="2/0to3/0" to="3/0to3/1" fromLane="0" toLane="0"/>

    <connection from="2/1to1/1" to="1/1to1/2" fromLane="0" toLane="0"/>
    <connection from="2/1to1/1" to="1/1to0/1" fromLane="0" toLane="0"/>
    <connection from="2/1to1/1" to="1/1to1/0" fromLane="0" toLane="0"/>

    <connection from="2/1to2/0" to="2/0to1/0" fromLane="0" toLane="0"/>
    <connection from="2/1to2/0" to="2/0to3/0" fromLane="0" toLane="0"/>

    <connection from="2/1to2/2" to="2/2to3/2" fromLane="0" toLane="0"/>
    <connection from="2/1to2/2" to="2/2to2/3" fromLane="0" toLane="0"/>
    <connection from="2/1to2/2" to="2/2to1/2" fromLane="0" toLane="0"/>

    <connection from="2/1to3/1" to="3/1to3/0" fromLane="0" toLane="0"/>
    <connection from="2/1to3/1" to="3/1to4/1" fromLane="0" toLane="0"/>
    <connection from="2/1to3/1" to="3/1to3/2" fromLane="0" toLane="0"/>

    <connection from="2/2to1/2" to="1/2to1/3" fromLane="0" toLane="0"/>
    <connection from="2/2to1/2" to="1/2to0/2" fromLane="0" toLane="0"/>
    <connection from="2/2to1/2" to="1/2to1/1" fromLane="0" toLane="0"/>

    <connection from="2/2to2/1" to="2/1to1/1" fromLane="0" toLane="0"/>
    <connection from="2/2to2/1" to="2/1to2/0" fromLane="0" toLane="0"/>
    <connection from="2/2to2/1" to="2/1to3/1" fromLane="0" toLane="0"/>

    <connection from="2/2to2/3" to="2/3to3/3" fromLane="0" toLane="0"/>
    <connection from="2/2to2/3" to="2/3to2/4" fromLane="0" toLane="0"/>
    <connection from="2/2to2/3" to="2/3to1/3" fromLane="0" toLane="0"/>

    <connection from="2/2to3/2" to="3/2to3/1" fromLane="0" toLane="0"/>
    <connection from="2/2to3/2" to="3/2to4/2" fromLane="0" toLane="0"/>
    <connection from="2/2to3/2" to="3/2to3/3" fromLane="0" toLane="0"/>

    <connection from="2/3to1/3" to="1/3to1/4" fromLane="0" toLane="0"/>
    <connection from="2/3to1/3" to="1/3to0/3" fromLane="0" toLane="0"/>
    <connection from="2/3to1/3" to="1/3to1/2" fromLane="0" toLane="0"/>

    <connection from="2/3to2/2" to="2/2to1/2" fromLane="0" toLane="0"/>
    <connection from="2/3to2/2" to="2/2to2/1" fromLane="0" toLane="0"/>
    <connection from="2/3to2/2" to="2/2to3/2" fromLane="0" toLane="0"/>

    <connection from="2/3to2/4" to="2/4to3/4" fromLane="0" toLane="0"/>
    <connection from="2/3to2/4" to="2/4to2/5" fromLane="0" toLane="0"/>
    <connection from="2/3to2/4" to="2/4to1/4" fromLane="0" toLane="0"/>

    <connection from="2/3to3/3" to="3/3to3/2" fromLane="0" toLane="0"/>
    <connection from="2/3to3/3" to="3/3to4/3" fromLane="0" toLane="0"/>
    <connection from="2/3to3/3" to="3/3to3/4" fromLane="0" toLane="0"/>

    <connection from="2/4to1/4" to="1/4to1/5" fromLane="0" toLane="0"/>
    <connection from="2/4to1/4" to="1/4to0/4" fromLane="0" toLane="0"/>
    <connection from="2/4to1/4" to="1/4to1/3" fromLane="0" toLane="0"/>

    <connection from="2/4to2/3" to="2/3to1/3" fromLane="0" toLane="0"/>
    <connection from="2/4to2/3" to="2/3to2/2" fromLane="0" toLane="0"/>
    <connection from="2/4to2/3" to="2/3to3/3" fromLane="0" toLane="0"/>

    <connection from="2/4to2/5" to="2/5to3/5" fromLane="0" toLane="0"/>
    <connection from="2/4to2/5" to="2/5to2/6" fromLane="0" toLane="0"/>
    <connection from="2/4to2/5" to="2/5to1/5" fromLane="0" toLane="0"/>

    <connection from="2/4to3/4" to="3/4to3/3" fromLane="0" toLane="0"/>
    <connection from="2/4to3/4" to="3/4to4/4" fromLane="0" toLane="0"/>
    <connection from="2/4to3/4" to="3/4to3/5" fromLane="0" toLane="0"/>

    <connection from="2/5to1/5" to="1/5to1/6" fromLane="0" toLane="0"/>
    <connection from="2/5to1/5" to="1/5to0/5" fromLane="0" toLane="0"/>
    <connection from="2/5to1/5" to="1/5to1/4" fromLane="0" toLane="0"/>

    <connection from="2/5to2/4" to="2/4to1/4" fromLane="0" toLane="0"/>
    <connection from="2/5to2/4" to="2/4to2/3" fromLane="0" toLane="0"/>
    <connection from="2/5to2/4" to="2/4to3/4" fromLane="0" toLane="0"/>

    <connection from="2/5to2/6" to="2/6to3/6" fromLane="0" toLane="0"/>
    <connection from="2/5to2/6" to="2/6to2/7" fromLane="0" toLane="0"/>
    <connection from="2/5to2/6" to="2/6to1/6" fromLane="0" toLane="0"/>

    <connection from="2/5to3/5" to="3/5to3/4" fromLane="0" toLane="0"/>
    <connection from="2/5to3/5" to="3/5to4/5" fromLane="0" toLane="0"/>
    <connection from="2/5to3/5" to="3/5to3/6" fromLane="0" toLane="0"/>

    <connection from="2/6to1/6" to="1/6to1/7" fromLane="0" toLane="0"/>
    <connection from="2/6to1/6" to="1/6to0/6" fromLane="0" toLane="0"/>
    <connection from="2/6to1/6" to="1/6to1/5" fromLane="0" toLane="0"/>

    <connection from="2/6to2/5" to="2/5to1/5" fromLane="0" toLane="0"/>
    <connection from="2/6to2/5" to="2/5to2/4" fromLane="0" toLane="0"/>
    <connection from="2/6to2/5" to="2/5to3/5" fromLane="0" toLane="0"/>

    <connection from="2/6to2/7" to="2/7to3/7" fromLane="0" toLane="0"/>
    <connection from="2/6to2/7" to="2/7to2/8" fromLane="0" toLane="0"/>
    <connection from="2/6to2/7" to="2/7to1/7" fromLane="0" toLane="0"/>

    <connection from="2/6to3/6" to="3/6to3/5" fromLane="0" toLane="0"/>
    <connection from="2/6to3/6" to="3/6to4/6" fromLane="0" toLane="0"/>
    <connection from="2/6to3/6" to="3/6to3/7" fromLane="0" toLane="0"/>

    <connection from="2/7to1/7" to="1/7to1/8" fromLane="0" toLane="0"/>
    <connection from="2/7to1/7" to="1/7to0/7" fromLane="0" toLane="0"/>
    <connection from="2/7to1/7" to="1/7to1/6" fromLane="0" toLane="0"/>

    <connection from="2/7to2/6" to="2/6to1/6" fromLane="0" toLane="0"/>
    <connection from="2/7to2/6" to="2/6to2/5" fromLane="0" toLane="0"/>
    <connection from="2/7to2/6" to="2/6to3/6" fromLane="0" toLane="0"/>

    <connection from="2/7to2/8" to="2/8to3/8" fromLane="0" toLane="0"/>
    <connection from="2/7to2/8" to="2/8to2/9" fromLane="0" toLane="0"/>
    <connection from="2/7to2/8" to="2/8to1/8" fromLane="0" toLane="0"/>

    <connection from="2/7to3/7" to="3/7to3/6" fromLane="0" toLane="0"/>
    <connection from="2/7to3/7" to="3/7to4/7" fromLane="0" toLane="0"/>
    <connection from="2/7to3/7" to="3/7to3/8" fromLane="0" toLane="0"/>

    <connection from="2/8to1/8" to="1/8to1/9" fromLane="0" toLane="0"/>
    <connection from="2/8to1/8" to="1/8to0/8" fromLane="0" toLane="0"/>
    <connection from="2/8to1/8" to="1/8to1/7" fromLane="0" toLane="0"/>

    <connection from="2/8to2/7" to="2/7to1/7" fromLane="0" toLane="0"/>
    <connection from="2/8to2/7" to="2/7to2/6" fromLane="0" toLane="0"/>
    <connection from="2/8to2/7" to="2/7to3/7" fromLane="0" toLane="0"/>

    <connection from="2/8to2/9" to="2/9to3/9" fromLane="0" toLane="0"/>
    <connection from="2/8to2/9" to="2/9to1/9" fromLane="0" toLane="0"/>

    <connection from="2/8to3/8" to="3/8to3/7" fromLane="0" toLane="0"/>
    <connection from="2/8to3/8" to="3/8to4/8" fromLane="0" toLane="0"/>
    <connection from="2/8to3/8" to="3/8to3/9" fromLane="0" toLane="0"/>

    <connection from="2/9to1/9" to="1/9to0/9" fromLane="0" toLane="0"/>
    <connection from="2/9to1/9" to="1/9to1/8" fromLane="0" toLane="0"/>

    <connection from="2/9to2/8" to="2/8to1/8" fromLane="0" toLane="0"/>
    <connection from="2/9to2/8" to="2/8to2/7" fromLane="0" toLane="0"/>
    <connection from="2/9to2/8" to="2/8to3/8" fromLane="0" toLane="0"/>

    <connection from="2/9to3/9" to="3/9to3/8" fromLane="0" toLane="0"/>
    <connection from="2/9to3/9" to="3/9to4/9" fromLane="0" toLane="0"/>

    <connection from="3/0to2/0" to="2/0to2/1" fromLane="0" toLane="0"/>
    <connection from="3/0to2/0" to="2/0to1/0" fromLane="0" toLane="0"/>

    <connection from="3/0to3/1" to="3/1to4/1" fromLane="0" toLane="0"/>
    <connection from="3/0to3/1" to="3/1to3/2" fromLane="0" toLane="0"/>
    <connection from="3/0to3/1" to="3/1to2/1" fromLane="0" toLane="0"/>

    <connection from="3/0to4/0" to="4/0to5/0" fromLane="0" toLane="0"/>
    <connection from="3/0to4/0" to="4/0to4/1" fromLane="0" toLane="0"/>

    <connection from="3/1to2/1" to="2/1to2/2" fromLane="0" toLane="0"/>
    <connection from="3/1to2/1" to="2/1to1/1" fromLane="0" toLane="0"/>
    <connection from="3/1to2/1" to="2/1to2/0" fromLane="0" toLane="0"/>

    <connection from="3/1to3/0" to="3/0to2/0" fromLane="0" toLane="0"/>
    <connection from="3/1to3/0" to="3/0to4/0" fromLane="0" toLane="0"/>

    <connection from="3/1to3/2" to="3/2to4/2" fromLane="0" toLane="0"/>
    <connection from="3/1to3/2" to="3/2to3/3" fromLane="0" toLane="0"/>
    <connection from="3/1to3/2" to="3/2to2/2" fromLane="0" toLane="0"/>

    <connection from="3/1to4/1" to="4/1to4/0" fromLane="0" toLane="0"/>
    <connection from="3/1to4/1" to="4/1to5/1" fromLane="0" toLane="0"/>
    <connection from="3/1to4/1" to="4/1to4/2" fromLane="0" toLane="0"/>

    <connection from="3/2to2/2" to="2/2to2/3" fromLane="0" toLane="0"/>
    <connection from="3/2to2/2" to="2/2to1/2" fromLane="0" toLane="0"/>
    <connection from="3/2to2/2" to="2/2to2/1" fromLane="0" toLane="0"/>

    <connection from="3/2to3/1" to="3/1to2/1" fromLane="0" toLane="0"/>
    <connection from="3/2to3/1" to="3/1to3/0" fromLane="0" toLane="0"/>
    <connection from="3/2to3/1" to="3/1to4/1" fromLane="0" toLane="0"/>

    <connection from="3/2to3/3" to="3/3to4/3" fromLane="0" toLane="0"/>
    <connection from="3/2to3/3" to="3/3to3/4" fromLane="0" toLane="0"/>
    <connection from="3/2to3/3" to="3/3to2/3" fromLane="0" toLane="0"/>

    <connection from="3/2to4/2" to="4/2to4/1" fromLane="0" toLane="0"/>
    <connection from="3/2to4/2" to="4/2to5/2" fromLane="0" toLane="0"/>
    <connection from="3/2to4/2" to="4/2to4/3" fromLane="0" toLane="0"/>

    <connection from="3/3to2/3" to="2/3to2/4" fromLane="0" toLane="0"/>
    <connection from="3/3to2/3" to="2/3to1/3" fromLane="0" toLane="0"/>
    <connection from="3/3to2/3" to="2/3to2/2" fromLane="0" toLane="0"/>

    <connection from="3/3to3/2" to="3/2to2/2" fromLane="0" toLane="0"/>
    <connection from="3/3to3/2" to="3/2to3/1" fromLane="0" toLane="0"/>
    <connection from="3/3to3/2" to="3/2to4/2" fromLane="0" toLane="0"/>

    <connection from="3/3to3/4" to="3/4to4/4" fromLane="0" toLane="0"/>
    <connection from="3/3to3/4" to="3/4to3/5" fromLane="0" toLane="0"/>
    <connection from="3/3to3/4" to="3/4to2/4" fromLane="0" toLane="0"/>

    <connection from="3/3to4/3" to="4/3to4/2" fromLane="0" toLane="0"/>
    <connection from="3/3to4/3" to="4/3to5/3" fromLane="0" toLane="0"/>
    <connection from="3/3to4/3" to="4/3to4/4" fromLane="0" toLane="0"/>

    <connection from="3/4to2/4" to="2/4to2/5" fromLane="0" toLane="0"/>
    <connection from="3/4to2/4" to="2/4to1/4" fromLane="0" toLane="0"/>
    <connection from="3/4to2/4" to="2/4to2/3" fromLane="0" toLane="0"/>

    <connection from="3/4to3/3" to="3/3to2/3" fromLane="0" toLane="0"/>
    <connection from="3/4to3/3" to="3/3to3/2" fromLane="0" toLane="0"/>
    <connection from="3/4to3/3" to="3/3to4/3" fromLane="0" toLane="0"/>

    <connection from="3/4to3/5" to="3/5to4/5" fromLane="0" toLane="0"/>
    <connection from="3/4to3/5" to="3/5to3/6" fromLane="0" toLane="0"/>
    <connection from="3/4to3/5" to="3/5to2/5" fromLane="0" toLane="0"/>

    <connection from="3/4to4/4" to="4/4to4/3" fromLane="0" toLane="0"/>
    <connection from="3/4to4/4" to="4/4to5/4" fromLane="0" toLane="0"/>
    <connection from="3/4to4/4" to="4/4to4/5" fromLane="0" toLane="0"/>

    <connection from="3/5to2/5" to="2/5to2/6" fromLane="0" toLane="0"/>
    <connection from="3/5to2/5" to="2/5to1/5" fromLane="0" toLane="0"/>
    <connection from="3/5to2/5" to="2/5to2/4" fromLane="0" toLane="0"/>

    <connection from="3/5to3/4" to="3/4to2/4" fromLane="0" toLane="0"/>
    <connection from="3/5to3/4" to="3/4to3/3" fromLane="0" toLane="0"/>
    <connection from="3/5to3/4" to="3/4to4/4" fromLane="0" toLane="0"/>

    <connection from="3/5to3/6" to="3/6to4/6" fromLane="0" toLane="0"/>
    <connection from="3/5to3/6" to="3/6to3/7" fromLane="0" toLane="0"/>
    <connection from="3/5to3/6" to="3/6to2/6" fromLane="0" toLane="0"/>

    <connection from="3/5to4/5" to="4/5to4/4" fromLane="0" toLane="0"/>
    <connection from="3/5to4/5" to="4/5to5/5" fromLane="0" toLane="0"/>
    <connection from="3/5to4/5" to="4/5to4/6" fromLane="0" toLane="0"/>

    <connection from="3/6to2/6" to="2/6to2/7" fromLane="0" toLane="0"/>
    <connection from="3/6to2/6" to="2/6to1/6" fromLane="0" toLane="0"/>
    <connection from="3/6to2/6" to="2/6to2/5" fromLane="0" toLane="0"/>

    <connection from="3/6to3/5" to="3/5to2/5" fromLane="0" toLane="0"/>
    <connection from="3/6to3/5" to="3/5to3/4" fromLane="0" toLane="0"/>
    <connection from="3/6to3/5" to="3/5to4/5" fromLane="0" toLane="0"/>

    <connection from="3/6to3/7" to="3/7to4/7" fromLane="0" toLane="0"/>
    <connection from="3/6to3/7" to="3/7to3/8" fromLane="0" toLane="0"/>
    <connection from="3/6to3/7" to="3/7to2/7" fromLane="0" toLane="0"/>

    <connection from="3/6to4/6" to="4/6to4/5" fromLane="0" toLane="0"/>
    <connection from="3/6to4/6" to="4/6to5/6" fromLane="0" toLane="0"/>
    <connection from="3/6to4/6" to="4/6to4/7" fromLane="0" toLane="0"/>

    <connection from="3/7to2/7" to="2/7to2/8" fromLane="0" toLane="0"/>
    <connection from="3/7to2/7" to="2/7to1/7" fromLane="0" toLane="0"/>
    <connection from="3/7to2/7" to="2/7to2/6" fromLane="0" toLane="0"/>

    <connection from="3/7to3/6" to="3/6to2/6" fromLane="0" toLane="0"/>
    <connection from="3/7to3/6" to="3/6to3/5" fromLane="0" toLane="0"/>
    <connection from="3/7to3/6" to="3/6to4/6" fromLane="0" toLane="0"/>

    <connection from="3/7to3/8" to="3/8to4/8" fromLane="0" toLane="0"/>
    <connection from="3/7to3/8" to="3/8to3/9" fromLane="0" toLane="0"/>
    <connection from="3/7to3/8" to="3/8to2/8" fromLane="0" toLane="0"/>

    <connection from="3/7to4/7" to="4/7to4/6" fromLane="0" toLane="0"/>
    <connection from="3/7to4/7" to="4/7to5/7" fromLane="0" toLane="0"/>
    <connection from="3/7to4/7" to="4/7to4/8" fromLane="0" toLane="0"/>

    <connection from="3/8to2/8" to="2/8to2/9" fromLane="0" toLane="0"/>
    <connection from="3/8to2/8" to="2/8to1/8" fromLane="0" toLane="0"/>
    <connection from="3/8to2/8" to="2/8to2/7" fromLane="0" toLane="0"/>

    <connection from="3/8to3/7" to="3/7to2/7" fromLane="0" toLane="0"/>
    <connection from="3/8to3/7" to="3/7to3/6" fromLane="0" toLane="0"/>
    <connection from="3/8to3/7" to="3/7to4/7" fromLane="0" toLane="0"/>

    <connection from="3/8to3/9" to="3/9to4/9" fromLane="0" toLane="0"/>
    <connection from="3/8to3/9" to="3/9to2/9" fromLane="0" toLane="0"/>

    <connection from="3/8to4/8" to="4/8to4/7" fromLane="0" toLane="0"/>
    <connection from="3/8to4/8" to="4/8to5/8" fromLane="0" toLane="0"/>
    <connection from="3/8to4/8" to="4/8to4/9" fromLane="0" toLane="0"/>

    <connection from="3/9to2/9" to="2/9to1/9" fromLane="0" toLane="0"/>
    <connection from="3/9to2/9" to="2/9to2/8" fromLane="0" toLane="0"/>

    <connection from="3/9to3/8" to="3/8to2/8" fromLane="0" toLane="0"/>
    <connection from="3/9to3/8" to="3/8to3/7" fromLane="0" toLane="0"/>
    <connection from="3/9to3/8" to="3/8to4/8" fromLane="0" toLane="0"/>

    <connection from="3/9to4/9" to="4/9to4/8" fromLane="0" toLane="0"/>
    <connection from="3/9to4/9" to="4/9to5/9" fromLane="0" toLane="0"/>

    <connection from="4/0to3/0" to="3/0to3/1" fromLane="0" toLane="0"/>
    <connection from="4/0to3/0" to="3/0to2/0" fromLane="0" toLane="0"/>

    <connection from="4/0to4/1" to="4/1to5/1" fromLane="0" toLane="0"/>
    <connection from="4/0to4/1" to="4/1to4/2" fromLane="0" toLane="0"/>
    <connection from="4/0to4/1" to="4/1to3/1" fromLane="0" toLane="0"/>

    <connection from="4/0to5/0" to="5/0to6/0" fromLane="0" toLane="0"/>
    <connection from="4/0to5/0" to="5/0to5/1" fromLane="0" toLane="0"/>

    <connection from="4/1to3/1" to="3/1to3/2" fromLane="0" toLane="0"/>
    <connection from="4/1to3/1" to="3/1to2/1" fromLane="0" toLane="0"/>
    <connection from="4/1to3/1" to="3/1to3/0" fromLane="0" toLane="0"/>

    <connection from="4/1to4/0" to="4/0to3/0" fromLane="0" toLane="0"/>
    <connection from="4/1to4/0" to="4/0to5/0" fromLane="0" toLane="0"/>

    <connection from="4/1to4/2" to="4/2to5/2" fromLane="0" toLane="0"/>
    <connection from="4/1to4/2" to="4/2to4/3" fromLane="0" toLane="0"/>
    <connection from="4/1to4/2" to="4/2to3/2" fromLane="0" toLane="0"/>

    <connection from="4/1to5/1" to="5/1to5/0" fromLane="0" toLane="0"/>
    <connection from="4/1to5/1" to="5/1to6/1" fromLane="0" toLane="0"/>
    <connection from="4/1to5/1" to="5/1to5/2" fromLane="0" toLane="0"/>

    <connection from="4/2to3/2" to="3/2to3/3" fromLane="0" toLane="0"/>
    <connection from="4/2to3/2" to="3/2to2/2" fromLane="0" toLane="0"/>
    <connection from="4/2to3/2" to="3/2to3/1" fromLane="0" toLane="0"/>

    <connection from="4/2to4/1" to="4/1to3/1" fromLane="0" toLane="0"/>
    <connection from="4/2to4/1" to="4/1to4/0" fromLane="0" toLane="0"/>
    <connection from="4/2to4/1" to="4/1to5/1" fromLane="0" toLane="0"/>

    <connection from="4/2to4/3" to="4/3to5/3" fromLane="0" toLane="0"/>