<?xml version="1.0" encoding="UTF-8"?>

<!-- generated on Fri Dec  5 10:31:17 2014 by SUMO netgenerate Version 0.19.0
<?xml version="1.0" encoding="UTF-8"?>

<configuration xmlns:xsi="http://www.w3.org/2001/XMLSchema-instance" xsi:noNamespaceSchemaLocation="http://sumo-sim.org/xsd/netgenerateConfiguration.xsd">

    <random_network>
        <rand value="true"/>
        <rand.iterations value="500"/>
    </random_network>

    <output>
        <output-file value="net.net.xml"/>
    </output>

    <tls_building>
        <tls.guess value="true"/>
    </tls_building>

    <processing>
        <no-turnarounds value="true"/>
    </processing>

</configuration>
-->

<net version="0.13" xmlns:xsi="http://www.w3.org/2001/XMLSchema-instance" xsi:noNamespaceSchemaLocation="http://sumo-sim.org/xsd/net_file.xsd">

    <location netOffset="2105.03,2910.21" convBoundary="0.00,0.00,4398.28,5096.64" origBoundary="-2105.03,-2910.21,2293.24,2186.43" projParameter="!"/>

    <edge id=":1_0" function="internal">
        <lane id=":1_0_0" index="0" speed="13.90" length="5.38" shape="2103.47,2916.07 2103.23,2914.55 2102.56,2913.62 2101.47,2913.27 2099.94,2913.52"/>
    </edge>
    <edge id=":1_1" function="internal">
        <lane id=":1_1_0" index="0" speed="13.90" length="9.96" shape="2103.47,2916.07 2102.37,2906.18"/>
    </edge>
    <edge id=":1_2" function="internal">
        <lane id=":1_2_0" index="0" speed="13.90" length="3.81" shape="2103.47,2916.07 2103.84,2912.77 2104.07,2912.34"/>
    </edge>
    <edge id=":1_12" function="internal">
        <lane id=":1_12_0" index="0" speed="13.90" length="7.52" shape="2104.07,2912.34 2105.05,2910.45 2107.11,2909.11 2110.02,2908.75"/>
    </edge>
    <edge id=":1_3" function="internal">
        <lane id=":1_3_0" index="0" speed="13.90" length="5.81" shape="2109.89,2912.05 2108.50,2912.25 2107.52,2912.98 2106.94,2914.24 2106.77,2916.02"/>
    </edge>
    <edge id=":1_4" function="internal">
        <lane id=":1_4_0" index="0" speed="13.90" length="10.15" shape="2109.89,2912.05 2106.90,2911.99 2104.84,2912.15 2102.81,2912.63 2099.94,2913.52"/>
    </edge>
    <edge id=":1_5" function="internal">
        <lane id=":1_5_0" index="0" speed="13.90" length="3.37" shape="2109.89,2912.05 2107.11,2911.59 2106.62,2911.34"/>
    </edge>
    <edge id=":1_13" function="internal">
        <lane id=":1_13_0" index="0" speed="13.90" length="6.98" shape="2106.62,2911.34 2104.92,2910.46 2103.34,2908.66 2102.37,2906.18"/>
    </edge>
    <edge id=":1_6" function="internal">
        <lane id=":1_6_0" index="0" speed="13.90" length="6.03" shape="2105.57,2905.41 2106.14,2906.82 2107.07,2907.84 2108.36,2908.49 2110.02,2908.75"/>
    </edge>
    <edge id=":1_7" function="internal">
        <lane id=":1_7_0" index="0" speed="13.90" length="10.72" shape="2105.57,2905.41 2106.24,2908.41 2106.58,2910.66 2106.72,2912.94 2106.77,2916.02"/>
    </edge>
    <edge id=":1_8" function="internal">
        <lane id=":1_8_0" index="0" speed="13.90" length="3.49" shape="2105.57,2905.41 2105.76,2908.13 2105.48,2908.83"/>
    </edge>
    <edge id=":1_14" function="internal">
        <lane id=":1_14_0" index="0" speed="13.90" length="7.59" shape="2105.48,2908.83 2104.88,2910.39 2102.94,2912.19 2099.94,2913.52"/>
    </edge>
    <edge id=":1_9" function="internal">
        <lane id=":1_9_0" index="0" speed="13.90" length="6.02" shape="2098.96,2910.36 2100.71,2909.63 2101.87,2908.68 2102.42,2907.53 2102.37,2906.18"/>
    </edge>
    <edge id=":1_10" function="internal">
        <lane id=":1_10_0" index="0" speed="13.90" length="11.25" shape="2098.96,2910.36 2102.00,2909.46 2104.41,2908.93 2106.86,2908.71 2110.02,2908.75"/>
    </edge>
    <edge id=":1_11" function="internal">
        <lane id=":1_11_0" index="0" speed="13.90" length="3.89" shape="2098.96,2910.36 2102.33,2909.82 2102.79,2909.97"/>
    </edge>
    <edge id=":1_15" function="internal">
        <lane id=":1_15_0" index="0" speed="13.90" length="8.02" shape="2102.79,2909.97 2104.76,2910.59 2106.24,2912.65 2106.77,2916.02"/>
    </edge>
    <edge id=":10_0" function="internal">
        <lane id=":10_0_0" index="0" speed="13.90" length="5.98" shape="1943.55,2968.27 1942.76,2966.63 1941.80,2965.96 1940.67,2966.26 1939.37,2967.54"/>
    </edge>
    <edge id=":10_1" function="internal">
        <lane id=":10_1_0" index="0" speed="13.90" length="11.10" shape="1943.55,2968.27 1942.57,2965.25 1941.67,2962.98 1940.34,2961.02 1938.07,2958.89"/>
    </edge>
    <edge id=":10_2" function="internal">
        <lane id=":10_2_0" index="0" speed="13.90" length="4.91" shape="1943.55,2968.27 1942.67,2964.31 1942.74,2963.46"/>
    </edge>
    <edge id=":10_12" function="internal">
        <lane id=":10_12_0" index="0" speed="13.90" length="7.80" shape="1942.74,2963.46 1942.92,2961.21 1944.31,2958.96 1946.85,2957.57"/>
    </edge>
    <edge id=":10_3" function="internal">
        <lane id=":10_3_0" index="0" speed="13.90" length="7.37" shape="1947.82,2960.72 1946.63,2961.48 1946.04,2962.81 1946.06,2964.73 1946.68,2967.23"/>
    </edge>
    <edge id=":10_4" function="internal">
        <lane id=":10_4_0" index="0" speed="13.90" length="11.13" shape="1947.82,2960.72 1944.92,2961.86 1942.96,2963.21 1941.32,2965.02 1939.37,2967.54"/>
    </edge>
    <edge id=":10_5" function="internal">
        <lane id=":10_5_0" index="0" speed="13.90" length="3.59" shape="1947.82,2960.72 1945.17,2961.24 1944.28,2961.19"/>
    </edge>
    <edge id=":10_13" function="internal">
        <lane id=":10_13_0" index="0" speed="13.90" length="6.77" shape="1944.28,2961.19 1942.66,2961.11 1940.30,2960.32 1938.07,2958.89"/>
    </edge>
    <edge id=":10_6" function="internal">
        <lane id=":10_6_0" index="0" speed="13.90" length="7.10" shape="1940.15,2956.33 1941.68,2957.31 1943.30,2957.84 1945.02,2957.93 1946.85,2957.57"/>
    </edge>
    <edge id=":10_7" function="internal">
        <lane id=":10_7_0" index="0" speed="13.90" length="12.92" shape="1940.15,2956.33 1942.59,2958.70 1944.28,2961.19 1945.54,2963.97 1946.68,2967.23"/>
    </edge>
    <edge id=":10_8" function="internal">
        <lane id=":10_8_0" index="0" speed="13.90" length="4.25" shape="1940.15,2956.33 1941.94,2958.52 1942.18,2959.92"/>
    </edge>
    <edge id=":10_14" function="internal">
        <lane id=":10_14_0" index="0" speed="13.90" length="8.39" shape="1942.18,2959.92 1942.40,2961.13 1941.55,2964.13 1939.37,2967.54"/>
    </edge>
    <edge id=":10_9" function="internal">
        <lane id=":10_9_0" index="0" speed="13.90" length="7.45" shape="1936.78,2965.51 1938.23,2963.34 1938.93,2961.51 1938.88,2960.03 1938.07,2958.89"/>
    </edge>
    <edge id=":10_10" function="internal">
        <lane id=":10_10_0" index="0" speed="13.90" length="13.06" shape="1936.78,2965.51 1938.98,2962.81 1941.18,2960.62 1943.69,2958.88 1946.85,2957.57"/>
    </edge>
    <edge id=":10_11" function="internal">
        <lane id=":10_11_0" index="0" speed="13.90" length="5.61" shape="1936.78,2965.51 1939.86,2962.47 1941.10,2962.14"/>
    </edge>
    <edge id=":10_15" function="internal">
        <lane id=":10_15_0" index="0" speed="13.90" length="8.59" shape="1941.10,2962.14 1942.53,2961.75 1944.81,2963.34 1946.68,2967.23"/>
    </edge>
    <edge id=":1004_0" function="internal">
        <lane id=":1004_0_0" index="0" speed="13.90" length="4.66" shape="1966.15,3211.56 1964.94,3211.36 1963.86,3211.53 1962.91,3212.08 1962.09,3213.00"/>
    </edge>
    <edge id=":1004_1" function="internal">
        <lane id=":1004_1_0" index="0" speed="13.90" length="8.28" shape="1966.15,3211.56 1959.43,3206.72"/>
    </edge>
    <edge id=":1004_2" function="internal">
        <lane id=":1004_2_0" index="0" speed="13.90" length="6.11" shape="1962.15,3204.84 1967.11,3208.40"/>
    </edge>
    <edge id=":1004_3" function="internal">
        <lane id=":1004_3_0" index="0" speed="13.90" length="5.02" shape="1962.15,3204.84 1963.18,3206.85 1963.51,3208.88 1963.39,3209.57"/>
    </edge>
    <edge id=":1004_6" function="internal">
        <lane id=":1004_6_0" index="0" speed="13.90" length="3.70" shape="1963.39,3209.57 1963.15,3210.93 1962.09,3213.00"/>
    </edge>
    <edge id=":1004_4" function="internal">
        <lane id=":1004_4_0" index="0" speed="13.90" length="4.72" shape="1959.36,3211.14 1959.95,3210.01 1960.15,3208.89 1959.98,3207.80 1959.43,3206.72"/>
    </edge>
    <edge id=":1004_5" function="internal">
        <lane id=":1004_5_0" index="0" speed="13.90" length="3.77" shape="1959.36,3211.14 1960.92,3209.39 1962.15,3208.68"/>
    </edge>
    <edge id=":1004_7" function="internal">
        <lane id=":1004_7_0" index="0" speed="13.90" length="5.11" shape="1962.15,3208.68 1962.73,3208.34 1964.80,3208.02 1967.11,3208.40"/>
    </edge>
    <edge id=":10075_0" function="internal">
        <lane id=":10075_0_0" index="0" speed="13.90" length="7.39" shape="3835.94,1868.25 3834.16,1866.63 3832.51,1865.59 3830.97,1865.14 3829.56,1865.28"/>
    </edge>
    <edge id=":10075_1" function="internal">
        <lane id=":10075_1_0" index="0" speed="13.90" length="13.27" shape="3835.94,1868.25 3833.73,1865.56 3832.22,1862.79 3831.37,1859.75 3831.09,1856.28"/>
    </edge>
    <edge id=":10075_2" function="internal">
        <lane id=":10075_2_0" index="0" speed="13.90" length="5.03" shape="3835.94,1868.25 3833.79,1865.27 3833.61,1863.93"/>
    </edge>
    <edge id=":10075_12" function="internal">
        <lane id=":10075_12_0" index="0" speed="13.90" length="7.56" shape="3833.61,1863.93 3833.43,1862.67 3834.85,1860.48 3838.06,1858.68"/>
    </edge>
    <edge id=":10075_3" function="internal">
        <lane id=":10075_3_0" index="0" speed="13.90" length="5.55" shape="3839.26,1861.75 3837.85,1862.54 3837.22,1863.51 3837.38,1864.66 3838.33,1865.98"/>
    </edge>
    <edge id=":10075_4" function="internal">
        <lane id=":10075_4_0" index="0" speed="13.90" length="10.33" shape="3839.26,1861.75 3836.45,1862.86 3834.45,1863.63 3832.43,1864.34 3829.56,1865.28"/>
    </edge>
    <edge id=":10075_5" function="internal">
        <lane id=":10075_5_0" index="0" speed="13.90" length="3.67" shape="3839.26,1861.75 3835.69,1862.60"/>
    </edge>
    <edge id=":10075_13" function="internal">
        <lane id=":10075_13_0" index="0" speed="13.90" length="8.86" shape="3835.69,1862.60 3833.14,1861.98 3831.61,1859.87 3831.09,1856.28"/>
    </edge>
    <edge id=":10075_6" function="internal">
        <lane id=":10075_6_0" index="0" speed="13.90" length="5.59" shape="3834.39,1856.27 3834.62,1857.86 3835.31,1858.79 3836.46,1859.06 3838.06,1858.68"/>
    </edge>
    <edge id=":10075_7" function="internal">
        <lane id=":10075_7_0" index="0" speed="13.90" length="10.88" shape="3834.39,1856.27 3834.52,1859.39 3835.07,1861.64 3836.26,1863.64 3838.33,1865.98"/>
    </edge>
    <edge id=":10075_8" function="internal">
        <lane id=":10075_8_0" index="0" speed="13.90" length="4.10" shape="3834.39,1856.27 3834.09,1859.63 3833.86,1860.32"/>
    </edge>
    <edge id=":10075_14" function="internal">
        <lane id=":10075_14_0" index="0" speed="13.90" length="6.87" shape="3833.86,1860.32 3833.19,1862.25 3831.68,1864.13 3829.56,1865.28"/>
    </edge>
    <edge id=":10075_9" function="internal">
        <lane id=":10075_9_0" index="0" speed="13.90" length="6.79" shape="3828.55,1862.13 3829.67,1861.46 3830.46,1860.26 3830.93,1858.54 3831.09,1856.28"/>
    </edge>
    <edge id=":10075_10" function="internal">
        <lane id=":10075_10_0" index="0" speed="13.90" length="10.12" shape="3828.55,1862.13 3831.39,1861.21 3833.35,1860.52 3835.28,1859.77 3838.06,1858.68"/>
    </edge>
    <edge id=":10075_11" function="internal">
        <lane id=":10075_11_0" index="0" speed="13.90" length="3.51" shape="3828.55,1862.13 3830.92,1861.81 3832.02,1862.05"/>
    </edge>
    <edge id=":10075_15" function="internal">
        <lane id=":10075_15_0" index="0" speed="13.90" length="7.56" shape="3832.02,1862.05 3833.34,1862.35 3835.81,1863.73 3838.33,1865.98"/>
    </edge>
    <edge id=":10081_0" function="internal">
        <lane id=":10081_0_0" index="0" speed="13.90" length="10.35" shape="4089.35,2047.98 4086.35,2048.43 4084.33,2049.11 4082.54,2050.29 4080.23,2052.27"/>
    </edge>
    <edge id=":10081_1" function="internal">
        <lane id=":10081_1_0" index="0" speed="13.90" length="12.68" shape="4089.35,2047.98 4085.97,2048.14 4083.06,2047.75 4080.26,2046.79 4077.21,2045.28"/>
    </edge>
    <edge id=":10081_2" function="internal">
        <lane id=":10081_2_0" index="0" speed="13.90" length="5.22" shape="4089.35,2047.98 4086.15,2047.83 4084.42,2046.78"/>
    </edge>
    <edge id=":10081_12" function="internal">
        <lane id=":10081_12_0" index="0" speed="13.90" length="6.99" shape="4084.42,2046.78 4083.96,2046.50 4082.77,2044.00 4082.59,2040.32"/>
    </edge>
    <edge id=":10081_3" function="internal">
        <lane id=":10081_3_0" index="0" speed="13.90" length="6.12" shape="4085.88,2040.57 4085.95,2042.53 4086.48,2043.87 4087.49,2044.60 4088.96,2044.71"/>
    </edge>
    <edge id=":10081_4" function="internal">
        <lane id=":10081_4_0" index="0" speed="13.90" length="4.35" shape="4085.88,2040.57 4085.37,2044.04 4085.09,2044.83"/>
    </edge>
    <edge id=":10081_5" function="internal">
        <lane id=":10081_5_0" index="0" speed="13.90" length="4.46" shape="4085.88,2040.57 4085.09,2044.27 4084.65,2044.78"/>
    </edge>
    <edge id=":10081_13" function="internal">
        <lane id=":10081_13_0" index="0" speed="13.90" length="9.02" shape="4085.09,2044.83 4084.32,2047.05 4082.64,2049.75 4080.23,2052.27"/>
    </edge>
    <edge id=":10081_14" function="internal">
        <lane id=":10081_14_0" index="0" speed="13.90" length="8.41" shape="4084.65,2044.78 4083.38,2046.29 4080.75,2046.63 4077.21,2045.28"/>
    </edge>
    <edge id=":10081_6" function="internal">
        <lane id=":10081_6_0" index="0" speed="13.90" length="5.63" shape="4078.80,2042.38 4080.35,2042.97 4081.49,2042.83 4082.24,2041.94 4082.59,2040.32"/>
    </edge>
    <edge id=":10081_7" function="internal">
        <lane id=":10081_7_0" index="0" speed="13.90" length="10.70" shape="4078.80,2042.38 4081.54,2043.84 4083.66,2044.66 4085.89,2044.93 4088.96,2044.71"/>
    </edge>
    <edge id=":10081_8" function="internal">
        <lane id=":10081_8_0" index="0" speed="13.90" length="3.88" shape="4078.80,2042.38 4081.82,2044.61 4081.88,2044.72"/>
    </edge>
    <edge id=":10081_15" function="internal">
        <lane id=":10081_15_0" index="0" speed="13.90" length="8.74" shape="4081.88,2044.72 4083.06,2047.00 4082.53,2049.55 4080.23,2052.27"/>
    </edge>
    <edge id=":10081_9" function="internal">
        <lane id=":10081_9_0" index="0" speed="13.90" length="5.79" shape="4078.05,2049.79 4079.06,2048.57 4079.26,2047.41 4078.64,2046.31 4077.21,2045.28"/>
    </edge>
    <edge id=":10081_10" function="internal">
        <lane id=":10081_10_0" index="0" speed="13.90" length="10.93" shape="4078.05,2049.79 4080.29,2047.62 4081.59,2045.69 4082.25,2043.44 4082.59,2040.32"/>
    </edge>
    <edge id=":10081_11" function="internal">
        <lane id=":10081_11_0" index="0" speed="13.90" length="12.28" shape="4078.05,2049.79 4080.64,2047.69 4083.05,2046.23 4085.69,2045.28 4088.96,2044.71"/>
    </edge>
    <edge id=":10088_0" function="internal">
        <lane id=":10088_0_0" index="0" speed="13.90" length="2.11" shape="3435.16,3665.69 3434.41,3667.66"/>
    </edge>
    <edge id=":10088_1" function="internal">
        <lane id=":10088_1_0" index="0" speed="13.90" length="0.69" shape="3431.65,3665.84 3431.90,3665.20"/>
    </edge>
    <edge id=":1010_0" function="internal">
        <lane id=":1010_0_0" index="0" speed="13.90" length="14.71" shape="1994.52,3469.02 1992.68,3471.91 1990.09,3474.15 1986.77,3475.74 1982.69,3476.68"/>
    </edge>
    <edge id=":1010_1" function="internal">
        <lane id=":1010_1_0" index="0" speed="13.90" length="9.55" shape="1994.52,3469.02 1992.50,3471.95 1990.01,3473.00 1987.03,3472.16 1986.88,3472.04"/>
    </edge>
    <edge id=":1010_6" function="internal">
        <lane id=":1010_6_0" index="0" speed="13.90" length="4.22" shape="1986.88,3472.04 1983.56,3469.43"/>
    </edge>
    <edge id=":1010_2" function="internal">
        <lane id=":1010_2_0" index="0" speed="13.90" length="6.97" shape="1985.89,3467.08 1987.76,3468.62 1989.32,3469.23 1990.57,3468.91 1991.52,3467.65"/>
    </edge>
    <edge id=":1010_3" function="internal">
        <lane id=":1010_3_0" index="0" speed="13.90" length="4.83" shape="1985.89,3467.08 1988.72,3470.69 1988.76,3470.93"/>
    </edge>
    <edge id=":1010_7" function="internal">
        <lane id=":1010_7_0" index="0" speed="13.90" length="10.01" shape="1988.76,3470.93 1989.14,3473.50 1987.13,3475.49 1982.69,3476.68"/>
    </edge>
    <edge id=":1010_4" function="internal">
        <lane id=":1010_4_0" index="0" speed="13.90" length="6.16" shape="1982.24,3473.41 1984.08,3472.92 1984.91,3472.09 1984.74,3470.93 1983.56,3469.43"/>
    </edge>
    <edge id=":1010_5" function="internal">
        <lane id=":1010_5_0" index="0" speed="13.90" length="11.40" shape="1982.24,3473.41 1985.48,3472.68 1988.10,3471.48 1990.12,3469.80 1991.52,3467.65"/>
    </edge>
    <edge id=":1026_0" function="internal">
        <lane id=":1026_0_0" index="0" speed="13.90" length="4.98" shape="1815.48,3108.06 1815.10,3106.75 1814.39,3105.88 1813.35,3105.43 1811.99,3105.41"/>
    </edge>
    <edge id=":1026_1" function="internal">
        <lane id=":1026_1_0" index="0" speed="13.90" length="9.15" shape="1815.48,3108.06 1815.09,3098.91"/>
    </edge>
    <edge id=":1026_2" function="internal">
        <lane id=":1026_2_0" index="0" speed="13.90" length="8.43" shape="1818.38,3099.15 1818.75,3107.58"/>
    </edge>
    <edge id=":1026_3" function="internal">
        <lane id=":1026_3_0" index="0" speed="13.90" length="6.26" shape="1818.38,3099.15 1817.83,3101.60 1816.58,3103.46 1815.32,3104.29"/>
    </edge>
    <edge id=":1026_6" function="internal">
        <lane id=":1026_6_0" index="0" speed="13.90" length="3.55" shape="1815.32,3104.29 1814.64,3104.73 1811.99,3105.41"/>
    </edge>
    <edge id=":1026_4" function="internal">
        <lane id=":1026_4_0" index="0" speed="13.90" length="5.22" shape="1811.57,3102.14 1813.03,3101.78 1814.11,3101.12 1814.79,3100.16 1815.09,3098.91"/>
    </edge>
    <edge id=":1026_5" function="internal">
        <lane id=":1026_5_0" index="0" speed="13.90" length="3.75" shape="1811.57,3102.14 1814.37,3102.18 1815.24,3102.56"/>
    </edge>
    <edge id=":1026_7" function="internal">
        <lane id=":1026_7_0" index="0" speed="13.90" length="6.47" shape="1815.24,3102.56 1816.49,3103.10 1817.95,3104.90 1818.75,3107.58"/>
    </edge>
    <edge id=":10302_0" function="internal">
        <lane id=":10302_0_0" index="0" speed="13.90" length="12.98" shape="3843.05,2458.83 3843.41,2462.21 3843.14,2465.23 3842.37,2468.21 3841.25,2471.49"/>
    </edge>
    <edge id=":10302_1" function="internal">
        <lane id=":10302_1_0" index="0" speed="13.90" length="7.63" shape="3843.05,2458.83 3843.00,2461.56 3841.69,2463.89 3839.90,2465.21"/>
    </edge>
    <edge id=":10302_6" function="internal">
        <lane id=":10302_6_0" index="0" speed="13.90" length="5.14" shape="3839.90,2465.21 3839.10,2465.81 3835.24,2467.31"/>
    </edge>
    <edge id=":10302_2" function="internal">
        <lane id=":10302_2_0" index="0" speed="13.90" length="7.83" shape="3834.33,2464.14 3836.95,2463.19 3838.73,2462.10 3839.69,2460.86 3839.81,2459.47"/>
    </edge>
    <edge id=":10302_3" function="internal">
        <lane id=":10302_3_0" index="0" speed="13.90" length="5.89" shape="3834.33,2464.14 3838.74,2463.45 3840.07,2463.95"/>
    </edge>
    <edge id=":10302_7" function="internal">
        <lane id=":10302_7_0" index="0" speed="13.90" length="8.66" shape="3840.07,2463.95 3841.36,2464.44 3842.20,2467.12 3841.25,2471.49"/>
    </edge>
    <edge id=":10302_4" function="internal">
        <lane id=":10302_4_0" index="0" speed="13.90" length="6.08" shape="3838.14,2470.38 3838.53,2468.56 3838.19,2467.44 3837.09,2467.02 3835.24,2467.31"/>
    </edge>
    <edge id=":10302_5" function="internal">
        <lane id=":10302_5_0" index="0" speed="13.90" length="11.25" shape="3838.14,2470.38 3839.24,2467.38 3839.97,2465.00 3840.20,2462.58 3839.81,2459.47"/>
    </edge>
    <edge id=":10306_0" function="internal">
        <lane id=":10306_0_0" index="0" speed="13.90" length="6.12" shape="3786.07,2630.64 3785.42,2628.87 3784.52,2628.11 3783.37,2628.37 3781.98,2629.64"/>
    </edge>
    <edge id=":10306_1" function="internal">
        <lane id=":10306_1_0" index="0" speed="13.90" length="14.53" shape="3786.07,2630.64 3785.07,2627.10 3783.75,2623.76 3782.08,2620.58 3780.02,2617.54"/>
    </edge>
    <edge id=":10306_2" function="internal">
        <lane id=":10306_2_0" index="0" speed="13.90" length="15.94" shape="3786.07,2630.64 3785.48,2626.79 3785.40,2622.71 3785.85,2618.66 3786.84,2614.90"/>
    </edge>
    <edge id=":10306_3" function="internal">
        <lane id=":10306_3_0" index="0" speed="13.90" length="14.10" shape="3789.95,2616.00 3788.98,2619.47 3788.56,2622.89 3788.67,2626.33 3789.28,2629.89"/>
    </edge>
    <edge id=":10306_4" function="internal">
        <lane id=":10306_4_0" index="0" speed="13.90" length="15.87" shape="3789.95,2616.00 3788.45,2619.58 3786.55,2623.16 3784.36,2626.57 3781.98,2629.64"/>
    </edge>
    <edge id=":10306_5" function="internal">
        <lane id=":10306_5_0" index="0" speed="13.90" length="6.67" shape="3789.95,2616.00 3788.00,2619.83 3786.03,2621.15"/>
    </edge>
    <edge id=":10306_12" function="internal">
        <lane id=":10306_12_0" index="0" speed="13.90" length="7.47" shape="3786.03,2621.15 3785.70,2621.37 3783.04,2620.60 3780.02,2617.54"/>
    </edge>
    <edge id=":10306_6" function="internal">
        <lane id=":10306_6_0" index="0" speed="13.90" length="5.97" shape="3782.65,2615.55 3783.92,2616.84 3785.04,2617.16 3786.02,2616.51 3786.84,2614.90"/>
    </edge>
    <edge id=":10306_7" function="internal">
        <lane id=":10306_7_0" index="0" speed="13.90" length="15.90" shape="3782.65,2615.55 3784.80,2618.78 3786.67,2622.39 3788.19,2626.15 3789.28,2629.89"/>
    </edge>
    <edge id=":10306_8" function="internal">
        <lane id=":10306_8_0" index="0" speed="13.90" length="4.68" shape="3782.65,2615.55 3784.61,2619.07 3784.71,2619.70"/>
    </edge>
    <edge id=":10306_13" function="internal">
        <lane id=":10306_13_0" index="0" speed="13.90" length="10.76" shape="3784.71,2619.70 3785.15,2622.59 3784.28,2626.12 3781.98,2629.64"/>
    </edge>
    <edge id=":10306_9" function="internal">
        <lane id=":10306_9_0" index="0" speed="13.90" length="10.91" shape="3779.47,2627.50 3781.11,2624.99 3781.75,2622.50 3781.39,2620.01 3780.02,2617.54"/>
    </edge>
    <edge id=":10306_10" function="internal">
        <lane id=":10306_10_0" index="0" speed="13.90" length="14.68" shape="3779.47,2627.50 3781.75,2624.59 3783.74,2621.54 3785.44,2618.32 3786.84,2614.90"/>
    </edge>
    <edge id=":10306_11" function="internal">
        <lane id=":10306_11_0" index="0" speed="13.90" length="5.67" shape="3779.47,2627.50 3782.81,2624.45 3783.93,2624.20"/>
    </edge>
    <edge id=":10306_14" function="internal">
        <lane id=":10306_14_0" index="0" speed="13.90" length="9.01" shape="3783.93,2624.20 3785.56,2623.83 3787.72,2625.65 3789.28,2629.89"/>
    </edge>
    <edge id=":10413_0" function="internal">
        <lane id=":10413_0_0" index="0" speed="13.90" length="13.67" shape="1101.46,3761.16 1098.05,3762.61 1095.56,3764.72 1093.99,3767.50 1093.34,3770.95"/>
    </edge>
    <edge id=":10413_1" function="internal">
        <lane id=":10413_1_0" index="0" speed="13.90" length="17.06" shape="1101.46,3761.16 1097.62,3762.51 1093.57,3764.37 1089.68,3766.56 1086.35,3768.89"/>
    </edge>
    <edge id=":10413_2" function="internal">
        <lane id=":10413_2_0" index="0" speed="13.90" length="6.40" shape="1101.46,3761.16 1096.32,3762.03 1095.21,3761.62"/>
    </edge>
    <edge id=":10413_12" function="internal">
        <lane id=":10413_12_0" index="0" speed="13.90" length="9.95" shape="1095.21,3761.62 1093.54,3761.00 1093.12,3758.06 1095.06,3753.23"/>
    </edge>
    <edge id=":10413_3" function="internal">
        <lane id=":10413_3_0" index="0" speed="13.90" length="6.60" shape="1097.97,3754.79 1097.19,3756.74 1097.36,3757.93 1098.48,3758.34 1100.55,3757.99"/>
    </edge>
    <edge id=":10413_4" function="internal">
        <lane id=":10413_4_0" index="0" speed="13.90" length="16.91" shape="1097.97,3754.79 1096.28,3758.47 1094.86,3762.65 1093.84,3766.94 1093.34,3770.95"/>
    </edge>
    <edge id=":10413_5" function="internal">
        <lane id=":10413_5_0" index="0" speed="13.90" length="18.35" shape="1097.97,3754.79 1095.70,3758.41 1092.73,3762.32 1089.48,3765.99 1086.35,3768.89"/>
    </edge>
    <edge id=":10413_6" function="internal">
        <lane id=":10413_6_0" index="0" speed="13.90" length="17.04" shape="1084.29,3766.32 1087.28,3763.57 1090.25,3760.25 1092.93,3756.69 1095.06,3753.23"/>
    </edge>
    <edge id=":10413_7" function="internal">
        <lane id=":10413_7_0" index="0" speed="13.90" length="18.35" shape="1084.29,3766.32 1087.80,3763.89 1092.08,3761.50 1096.53,3759.44 1100.55,3757.99"/>
    </edge>
    <edge id=":10413_8" function="internal">
        <lane id=":10413_8_0" index="0" speed="13.90" length="7.86" shape="1084.29,3766.32 1088.49,3763.69 1091.39,3763.59"/>
    </edge>
    <edge id=":10413_13" function="internal">
        <lane id=":10413_13_0" index="0" speed="13.90" length="7.86" shape="1091.39,3763.59 1093.01,3766.01 1093.34,3770.95"/>
    </edge>
    <edge id=":10413_9" function="internal">
        <lane id=":10413_9_0" index="0" speed="13.90" length="6.41" shape="1090.04,3770.78 1089.91,3768.76 1089.25,3767.78 1088.06,3767.82 1086.35,3768.89"/>
    </edge>
    <edge id=":10413_10" function="internal">
        <lane id=":10413_10_0" index="0" speed="13.90" length="18.36" shape="1090.04,3770.78 1090.60,3766.55 1091.76,3761.78 1093.31,3757.12 1095.06,3753.23"/>
    </edge>
    <edge id=":10413_11" function="internal">
        <lane id=":10413_11_0" index="0" speed="13.90" length="5.24" shape="1090.04,3770.78 1090.89,3766.27 1091.21,3765.70"/>
    </edge>
    <edge id=":10413_14" function="internal">
        <lane id=":10413_14_0" index="0" speed="13.90" length="12.55" shape="1091.21,3765.70 1092.92,3762.63 1096.14,3759.87 1100.55,3757.99"/>
    </edge>
    <edge id=":10419_0" function="internal">
        <lane id=":10419_0_0" index="0" speed="13.90" length="7.25" shape="1242.32,3725.60 1241.16,3723.75 1239.83,3722.57 1238.31,3722.07 1236.63,3722.25"/>
    </edge>
    <edge id=":10419_1" function="internal">
        <lane id=":10419_1_0" index="0" speed="13.90" length="11.46" shape="1242.32,3725.60 1240.92,3722.73 1239.85,3720.43 1238.85,3718.10 1237.65,3715.14"/>
    </edge>
    <edge id=":10419_2" function="internal">
        <lane id=":10419_2_0" index="0" speed="13.90" length="4.73" shape="1242.32,3725.60 1241.19,3722.15 1241.37,3721.07"/>
    </edge>
    <edge id=":10419_12" function="internal">
        <lane id=":10419_12_0" index="0" speed="13.90" length="7.75" shape="1241.37,3721.07 1241.62,3719.58 1243.61,3717.89 1247.15,3717.09"/>
    </edge>
    <edge id=":10419_3" function="internal">
        <lane id=":10419_3_0" index="0" speed="13.90" length="5.53" shape="1247.42,3720.38 1245.85,3720.74 1244.97,3721.48 1244.78,3722.62 1245.28,3724.15"/>
    </edge>
    <edge id=":10419_4" function="internal">
        <lane id=":10419_4_0" index="0" speed="13.90" length="10.99" shape="1247.42,3720.38 1244.31,3720.65 1241.96,3720.95 1239.64,3721.43 1236.63,3722.25"/>
    </edge>
    <edge id=":10419_5" function="internal">
        <lane id=":10419_5_0" index="0" speed="13.90" length="4.15" shape="1247.42,3720.38 1244.02,3720.29 1243.31,3720.06"/>
    </edge>
    <edge id=":10419_13" function="internal">
        <lane id=":10419_13_0" index="0" speed="13.90" length="7.83" shape="1243.31,3720.06 1241.25,3719.38 1239.13,3717.67 1237.65,3715.14"/>
    </edge>
    <edge id=":10419_6" function="internal">
        <lane id=":10419_6_0" index="0" speed="13.90" length="7.73" shape="1240.72,3713.93 1241.65,3715.47 1243.03,3716.51 1244.87,3717.05 1247.15,3717.09"/>
    </edge>
    <edge id=":10419_7" function="internal">
        <lane id=":10419_7_0" index="0" speed="13.90" length="11.20" shape="1240.72,3713.93 1241.90,3716.85 1242.87,3719.10 1243.90,3721.31 1245.28,3724.15"/>
    </edge>
    <edge id=":10419_8" function="internal">
        <lane id=":10419_8_0" index="0" speed="13.90" length="3.92" shape="1240.72,3713.93 1241.41,3716.85 1241.24,3717.75"/>
    </edge>
    <edge id=":10419_14" function="internal">
        <lane id=":10419_14_0" index="0" speed="13.90" length="6.90" shape="1241.24,3717.75 1240.96,3719.21 1239.37,3721.01 1236.63,3722.25"/>
    </edge>
    <edge id=":10419_9" function="internal">
        <lane id=":10419_9_0" index="0" speed="13.90" length="5.12" shape="1235.71,3719.07 1237.01,3718.49 1237.76,3717.64 1237.98,3716.52 1237.65,3715.14"/>
    </edge>
    <edge id=":10419_10" function="internal">
        <lane id=":10419_10_0" index="0" speed="13.90" length="11.64" shape="1235.71,3719.07 1238.83,3718.24 1241.37,3717.72 1243.94,3717.38 1247.15,3717.09"/>
    </edge>
    <edge id=":10419_11" function="internal">
        <lane id=":10419_11_0" index="0" speed="13.90" length="3.51" shape="1235.71,3719.07 1238.64,3718.72 1239.18,3718.87"/>
    </edge>
    <edge id=":10419_15" function="internal">
        <lane id=":10419_15_0" index="0" speed="13.90" length="8.41" shape="1239.18,3718.87 1241.21,3719.45 1243.43,3721.26 1245.28,3724.15"/>
    </edge>
    <edge id=":10425_0" function="internal">
        <lane id=":10425_0_0" index="0" speed="13.90" length="6.77" shape="1038.11,3395.75 1037.52,3394.09 1036.49,3393.00 1035.00,3392.46 1033.07,3392.48"/>
    </edge>