<?xml version="1.0" encoding="UTF-8"?>

<!-- generated on Fri Dec  5 10:24:33 2014 by SUMO netgenerate Version 0.19.0
<?xml version="1.0" encoding="UTF-8"?>

<configuration xmlns:xsi="http://www.w3.org/2001/XMLSchema-instance" xsi:noNamespaceSchemaLocation="http://sumo-sim.org/xsd/netgenerateConfiguration.xsd">

    <spider_network>
        <spider value="true"/>
        <spider.arm-number value="4"/>
        <spider.circle-number value="10"/>
    </spider_network>

    <output>
        <output-file value="net.net.xml"/>
    </output>

    <tls_building>
        <tls.guess value="true"/>
    </tls_building>

    <processing>
        <no-turnarounds value="true"/>
    </processing>

</configuration>
-->

<net version="0.13" xmlns:xsi="http://www.w3.org/2001/XMLSchema-instance" xsi:noNamespaceSchemaLocation="http://sumo-sim.org/xsd/net_file.xsd">

    <location netOffset="1000.00,1000.00" convBoundary="0.00,0.00,2000.00,2000.00" origBoundary="-1000.00,-1000.00,1000.00,1000.00" projParameter="!"/>

    <edge id=":1_0" function="internal">
        <lane id=":1_0_0" index="0" speed="13.90" length="5.00" shape="998.35,1004.75 998.16,1003.39 997.58,1002.43 996.61,1001.84 995.25,1001.65"/>
    </edge>
    <edge id=":1_1" function="internal">
        <lane id=":1_1_0" index="0" speed="13.90" length="9.50" shape="998.35,1004.75 998.35,995.25"/>
    </edge>
    <edge id=":1_2" function="internal">
        <lane id=":1_2_0" index="0" speed="13.90" length="3.18" shape="998.35,1004.75 998.75,1001.95 998.93,1001.65"/>
    </edge>
    <edge id=":1_12" function="internal">
        <lane id=":1_12_0" index="0" speed="13.90" length="7.14" shape="998.93,1001.65 999.95,999.95 1001.95,998.75 1004.75,998.35"/>
    </edge>
    <edge id=":1_3" function="internal">
        <lane id=":1_3_0" index="0" speed="13.90" length="5.00" shape="1004.75,1001.65 1003.39,1001.84 1002.43,1002.42 1001.84,1003.39 1001.65,1004.75"/>
    </edge>
    <edge id=":1_4" function="internal">
        <lane id=":1_4_0" index="0" speed="13.90" length="9.50" shape="1004.75,1001.65 995.25,1001.65"/>
    </edge>
    <edge id=":1_5" function="internal">
        <lane id=":1_5_0" index="0" speed="13.90" length="3.18" shape="1004.75,1001.65 1001.95,1001.25 1001.65,1001.07"/>
    </edge>
    <edge id=":1_13" function="internal">
        <lane id=":1_13_0" index="0" speed="13.90" length="7.14" shape="1001.65,1001.07 999.95,1000.05 998.75,998.05 998.35,995.25"/>
    </edge>
    <edge id=":1_6" function="internal">
        <lane id=":1_6_0" index="0" speed="13.90" length="5.00" shape="1001.65,995.25 1001.84,996.61 1002.42,997.57 1003.39,998.16 1004.75,998.35"/>
    </edge>
    <edge id=":1_7" function="internal">
        <lane id=":1_7_0" index="0" speed="13.90" length="9.50" shape="1001.65,995.25 1001.65,1004.75"/>
    </edge>
    <edge id=":1_8" function="internal">
        <lane id=":1_8_0" index="0" speed="13.90" length="3.18" shape="1001.65,995.25 1001.25,998.05 1001.07,998.35"/>
    </edge>
    <edge id=":1_14" function="internal">
        <lane id=":1_14_0" index="0" speed="13.90" length="7.14" shape="1001.07,998.35 1000.05,1000.05 998.05,1001.25 995.25,1001.65"/>
    </edge>
    <edge id=":1_9" function="internal">
        <lane id=":1_9_0" index="0" speed="13.90" length="5.00" shape="995.25,998.35 996.61,998.16 997.57,997.58 998.16,996.61 998.35,995.25"/>
    </edge>
    <edge id=":1_10" function="internal">
        <lane id=":1_10_0" index="0" speed="13.90" length="9.50" shape="995.25,998.35 1004.75,998.35"/>
    </edge>
    <edge id=":1_11" function="internal">
        <lane id=":1_11_0" index="0" speed="13.90" length="3.18" shape="995.25,998.35 998.05,998.75 998.35,998.93"/>
    </edge>
    <edge id=":1_15" function="internal">
        <lane id=":1_15_0" index="0" speed="13.90" length="7.14" shape="998.35,998.93 1000.05,999.95 1001.25,1001.95 1001.65,1004.75"/>
    </edge>
    <edge id=":1/1_0" function="internal">
        <lane id=":1/1_0_0" index="0" speed="13.90" length="10.43" shape="1102.85,1001.65 1101.52,1002.03 1099.69,1003.18 1097.37,1005.10 1094.56,1007.78"/>
    </edge>
    <edge id=":1/1_1" function="internal">
        <lane id=":1/1_1_0" index="0" speed="13.90" length="12.19" shape="1102.85,1001.65 1099.53,1001.65 1096.75,1001.65 1093.97,1001.65 1090.65,1001.65"/>
    </edge>
    <edge id=":1/1_2" function="internal">
        <lane id=":1/1_2_0" index="0" speed="13.90" length="4.81" shape="1102.85,1001.65 1100.86,1001.21 1098.43,999.88"/>
    </edge>
    <edge id=":1/1_12" function="internal">
        <lane id=":1/1_12_0" index="0" speed="13.90" length="8.18" shape="1098.43,999.88 1095.55,997.66 1092.22,994.56"/>
    </edge>
    <edge id=":1/1_3" function="internal">
        <lane id=":1/1_3_0" index="0" speed="13.90" length="10.81" shape="1094.56,992.22 1096.64,994.67 1098.15,996.61 1099.94,997.89 1102.85,998.35"/>
    </edge>
    <edge id=":1/1_4" function="internal">
        <lane id=":1/1_4_0" index="0" speed="13.90" length="7.17" shape="1094.56,992.22 1097.47,996.11 1098.03,998.35"/>
    </edge>
    <edge id=":1/1_5" function="internal">
        <lane id=":1/1_5_0" index="0" speed="13.90" length="7.30" shape="1094.56,992.22 1097.85,996.35 1098.15,998.35"/>
    </edge>
    <edge id=":1/1_13" function="internal">
        <lane id=":1/1_13_0" index="0" speed="13.90" length="10.57" shape="1098.03,998.35 1098.45,1000.00 1097.47,1003.89 1094.56,1007.78"/>
    </edge>
    <edge id=":1/1_14" function="internal">
        <lane id=":1/1_14_0" index="0" speed="13.90" length="9.21" shape="1098.15,998.35 1098.29,999.29 1095.90,1001.06 1090.65,1001.65"/>
    </edge>
    <edge id=":1/1_6" function="internal">
        <lane id=":1/1_6_0" index="0" speed="13.90" length="6.64" shape="1090.65,998.35 1092.76,998.11 1093.73,997.40 1093.55,996.22 1092.22,994.56"/>
    </edge>
    <edge id=":1/1_7" function="internal">
        <lane id=":1/1_7_0" index="0" speed="13.90" length="12.19" shape="1090.65,998.35 1093.97,998.35 1096.75,998.35 1099.53,998.35 1102.85,998.35"/>
    </edge>
    <edge id=":1/1_8" function="internal">
        <lane id=":1/1_8_0" index="0" speed="13.90" length="4.02" shape="1090.65,998.35 1094.65,998.80"/>
    </edge>
    <edge id=":1/1_15" function="internal">
        <lane id=":1/1_15_0" index="0" speed="13.90" length="12.49" shape="1094.65,998.80 1095.90,998.94 1098.29,1000.71 1097.85,1003.65 1094.56,1007.78"/>
    </edge>
    <edge id=":1/1_9" function="internal">
        <lane id=":1/1_9_0" index="0" speed="13.90" length="6.64" shape="1092.22,1005.44 1093.55,1003.78 1093.73,1002.60 1092.76,1001.89 1090.65,1001.65"/>
    </edge>
    <edge id=":1/1_10" function="internal">
        <lane id=":1/1_10_0" index="0" speed="13.90" length="12.41" shape="1092.22,1005.44 1094.27,1002.72 1094.95,1000.00 1094.27,997.28 1092.22,994.56"/>
    </edge>
    <edge id=":1/1_11" function="internal">
        <lane id=":1/1_11_0" index="0" speed="13.90" length="5.68" shape="1092.22,1005.44 1095.55,1002.34 1096.44,1001.65"/>
    </edge>
    <edge id=":1/1_16" function="internal">
        <lane id=":1/1_16_0" index="0" speed="13.90" length="7.31" shape="1096.44,1001.65 1098.43,1000.12 1100.86,998.79 1102.85,998.35"/>
    </edge>
    <edge id=":1/10_0" function="internal">
        <lane id=":1/10_0_0" index="0" speed="13.90" length="9.58" shape="1994.56,992.22 1997.47,996.11 1998.45,1000.00 1998.27,1000.69"/>
    </edge>
    <edge id=":1/10_1" function="internal">
        <lane id=":1/10_1_0" index="0" speed="13.90" length="12.49" shape="1994.56,992.22 1997.85,996.35 1998.29,999.29 1995.90,1001.06 1994.65,1001.20"/>
    </edge>
    <edge id=":1/10_6" function="internal">
        <lane id=":1/10_6_0" index="0" speed="13.90" length="8.16" shape="1998.27,1000.69 1997.47,1003.89 1994.56,1007.78"/>
    </edge>
    <edge id=":1/10_7" function="internal">
        <lane id=":1/10_7_0" index="0" speed="13.90" length="4.02" shape="1994.65,1001.20 1990.65,1001.65"/>
    </edge>
    <edge id=":1/10_2" function="internal">
        <lane id=":1/10_2_0" index="0" speed="13.90" length="6.64" shape="1990.65,998.35 1992.76,998.11 1993.73,997.40 1993.55,996.22 1992.22,994.56"/>
    </edge>
    <edge id=":1/10_3" function="internal">
        <lane id=":1/10_3_0" index="0" speed="13.90" length="4.02" shape="1990.65,998.35 1994.65,998.80"/>
    </edge>
    <edge id=":1/10_8" function="internal">
        <lane id=":1/10_8_0" index="0" speed="13.90" length="12.49" shape="1994.65,998.80 1995.90,998.94 1998.29,1000.71 1997.85,1003.65 1994.56,1007.78"/>
    </edge>
    <edge id=":1/10_4" function="internal">
        <lane id=":1/10_4_0" index="0" speed="13.90" length="6.64" shape="1992.22,1005.44 1993.55,1003.78 1993.73,1002.60 1992.76,1001.89 1990.65,1001.65"/>
    </edge>
    <edge id=":1/10_5" function="internal">
        <lane id=":1/10_5_0" index="0" speed="13.90" length="12.41" shape="1992.22,1005.44 1994.27,1002.72 1994.95,1000.00 1994.27,997.28 1992.22,994.56"/>
    </edge>
    <edge id=":1/2_0" function="internal">
        <lane id=":1/2_0_0" index="0" speed="13.90" length="10.43" shape="1202.85,1001.65 1201.52,1002.03 1199.69,1003.18 1197.37,1005.10 1194.56,1007.78"/>
    </edge>
    <edge id=":1/2_1" function="internal">
        <lane id=":1/2_1_0" index="0" speed="13.90" length="12.19" shape="1202.85,1001.65 1199.53,1001.65 1196.75,1001.65 1193.97,1001.65 1190.65,1001.65"/>
    </edge>
    <edge id=":1/2_2" function="internal">
        <lane id=":1/2_2_0" index="0" speed="13.90" length="4.81" shape="1202.85,1001.65 1200.86,1001.21 1198.43,999.88"/>
    </edge>
    <edge id=":1/2_12" function="internal">
        <lane id=":1/2_12_0" index="0" speed="13.90" length="8.18" shape="1198.43,999.88 1195.55,997.66 1192.22,994.56"/>
    </edge>
    <edge id=":1/2_3" function="internal">
        <lane id=":1/2_3_0" index="0" speed="13.90" length="10.43" shape="1194.56,992.22 1197.37,994.90 1199.69,996.82 1201.52,997.97 1202.85,998.35"/>
    </edge>
    <edge id=":1/2_4" function="internal">
        <lane id=":1/2_4_0" index="0" speed="13.90" length="7.17" shape="1194.56,992.22 1197.47,996.11 1198.03,998.35"/>
    </edge>
    <edge id=":1/2_5" function="internal">
        <lane id=":1/2_5_0" index="0" speed="13.90" length="7.30" shape="1194.56,992.22 1197.85,996.35 1198.15,998.35"/>
    </edge>
    <edge id=":1/2_13" function="internal">
        <lane id=":1/2_13_0" index="0" speed="13.90" length="10.57" shape="1198.03,998.35 1198.45,1000.00 1197.47,1003.89 1194.56,1007.78"/>
    </edge>
    <edge id=":1/2_14" function="internal">
        <lane id=":1/2_14_0" index="0" speed="13.90" length="9.21" shape="1198.15,998.35 1198.29,999.29 1195.90,1001.06 1190.65,1001.65"/>
    </edge>
    <edge id=":1/2_6" function="internal">
        <lane id=":1/2_6_0" index="0" speed="13.90" length="6.64" shape="1190.65,998.35 1192.76,998.11 1193.73,997.40 1193.55,996.22 1192.22,994.56"/>
    </edge>
    <edge id=":1/2_7" function="internal">
        <lane id=":1/2_7_0" index="0" speed="13.90" length="12.19" shape="1190.65,998.35 1193.97,998.35 1196.75,998.35 1199.53,998.35 1202.85,998.35"/>
    </edge>
    <edge id=":1/2_8" function="internal">
        <lane id=":1/2_8_0" index="0" speed="13.90" length="4.02" shape="1190.65,998.35 1194.65,998.80"/>
    </edge>
    <edge id=":1/2_15" function="internal">
        <lane id=":1/2_15_0" index="0" speed="13.90" length="12.49" shape="1194.65,998.80 1195.90,998.94 1198.29,1000.71 1197.85,1003.65 1194.56,1007.78"/>
    </edge>
    <edge id=":1/2_9" function="internal">
        <lane id=":1/2_9_0" index="0" speed="13.90" length="6.64" shape="1192.22,1005.44 1193.55,1003.78 1193.73,1002.60 1192.76,1001.89 1190.65,1001.65"/>
    </edge>
    <edge id=":1/2_10" function="internal">
        <lane id=":1/2_10_0" index="0" speed="13.90" length="12.41" shape="1192.22,1005.44 1194.27,1002.72 1194.95,1000.00 1194.27,997.28 1192.22,994.56"/>
    </edge>
    <edge id=":1/2_11" function="internal">
        <lane id=":1/2_11_0" index="0" speed="13.90" length="5.68" shape="1192.22,1005.44 1195.55,1002.34 1196.44,1001.65"/>
    </edge>
    <edge id=":1/2_16" function="internal">
        <lane id=":1/2_16_0" index="0" speed="13.90" length="7.31" shape="1196.44,1001.65 1198.43,1000.12 1200.86,998.79 1202.85,998.35"/>
    </edge>
    <edge id=":1/3_0" function="internal">
        <lane id=":1/3_0_0" index="0" speed="13.90" length="10.43" shape="1302.85,1001.65 1301.52,1002.03 1299.69,1003.18 1297.37,1005.10 1294.56,1007.78"/>
    </edge>
    <edge id=":1/3_1" function="internal">
        <lane id=":1/3_1_0" index="0" speed="13.90" length="12.19" shape="1302.85,1001.65 1299.53,1001.65 1296.75,1001.65 1293.97,1001.65 1290.65,1001.65"/>
    </edge>
    <edge id=":1/3_2" function="internal">
        <lane id=":1/3_2_0" index="0" speed="13.90" length="4.81" shape="1302.85,1001.65 1300.86,1001.21 1298.43,999.88"/>
    </edge>
    <edge id=":1/3_12" function="internal">
        <lane id=":1/3_12_0" index="0" speed="13.90" length="8.18" shape="1298.43,999.88 1295.55,997.66 1292.22,994.56"/>
    </edge>
    <edge id=":1/3_3" function="internal">
        <lane id=":1/3_3_0" index="0" speed="13.90" length="10.43" shape="1294.56,992.22 1297.37,994.90 1299.69,996.82 1301.52,997.97 1302.85,998.35"/>
    </edge>
    <edge id=":1/3_4" function="internal">
        <lane id=":1/3_4_0" index="0" speed="13.90" length="7.17" shape="1294.56,992.22 1297.47,996.11 1298.03,998.35"/>
    </edge>
    <edge id=":1/3_5" function="internal">
        <lane id=":1/3_5_0" index="0" speed="13.90" length="7.30" shape="1294.56,992.22 1297.85,996.35 1298.15,998.35"/>
    </edge>
    <edge id=":1/3_13" function="internal">
        <lane id=":1/3_13_0" index="0" speed="13.90" length="10.57" shape="1298.03,998.35 1298.45,1000.00 1297.47,1003.89 1294.56,1007.78"/>
    </edge>
    <edge id=":1/3_14" function="internal">
        <lane id=":1/3_14_0" index="0" speed="13.90" length="9.21" shape="1298.15,998.35 1298.29,999.29 1295.90,1001.06 1290.65,1001.65"/>
    </edge>
    <edge id=":1/3_6" function="internal">
        <lane id=":1/3_6_0" index="0" speed="13.90" length="6.64" shape="1290.65,998.35 1292.76,998.11 1293.73,997.40 1293.55,996.22 1292.22,994.56"/>
    </edge>
    <edge id=":1/3_7" function="internal">
        <lane id=":1/3_7_0" index="0" speed="13.90" length="12.19" shape="1290.65,998.35 1293.97,998.35 1296.75,998.35 1299.53,998.35 1302.85,998.35"/>
    </edge>
    <edge id=":1/3_8" function="internal">
        <lane id=":1/3_8_0" index="0" speed="13.90" length="4.02" shape="1290.65,998.35 1294.65,998.80"/>
    </edge>
    <edge id=":1/3_15" function="internal">
        <lane id=":1/3_15_0" index="0" speed="13.90" length="12.49" shape="1294.65,998.80 1295.90,998.94 1298.29,1000.71 1297.85,1003.65 1294.56,1007.78"/>
    </edge>
    <edge id=":1/3_9" function="internal">
        <lane id=":1/3_9_0" index="0" speed="13.90" length="6.64" shape="1292.22,1005.44 1293.55,1003.78 1293.73,1002.60 1292.76,1001.89 1290.65,1001.65"/>
    </edge>
    <edge id=":1/3_10" function="internal">
        <lane id=":1/3_10_0" index="0" speed="13.90" length="12.41" shape="1292.22,1005.44 1294.27,1002.72 1294.95,1000.00 1294.27,997.28 1292.22,994.56"/>
    </edge>
    <edge id=":1/3_11" function="internal">
        <lane id=":1/3_11_0" index="0" speed="13.90" length="5.68" shape="1292.22,1005.44 1295.55,1002.34 1296.44,1001.65"/>
    </edge>
    <edge id=":1/3_16" function="internal">
        <lane id=":1/3_16_0" index="0" speed="13.90" length="7.31" shape="1296.44,1001.65 1298.43,1000.12 1300.86,998.79 1302.85,998.35"/>
    </edge>
    <edge id=":1/4_0" function="internal">
        <lane id=":1/4_0_0" index="0" speed="13.90" length="10.43" shape="1402.85,1001.65 1401.52,1002.03 1399.69,1003.18 1397.37,1005.10 1394.56,1007.78"/>
    </edge>
    <edge id=":1/4_1" function="internal">
        <lane id=":1/4_1_0" index="0" speed="13.90" length="12.19" shape="1402.85,1001.65 1399.53,1001.65 1396.75,1001.65 1393.97,1001.65 1390.65,1001.65"/>
    </edge>
    <edge id=":1/4_2" function="internal">
        <lane id=":1/4_2_0" index="0" speed="13.90" length="4.81" shape="1402.85,1001.65 1400.86,1001.21 1398.43,999.88"/>
    </edge>
    <edge id=":1/4_12" function="internal">
        <lane id=":1/4_12_0" index="0" speed="13.90" length="8.18" shape="1398.43,999.88 1395.55,997.66 1392.22,994.56"/>
    </edge>
    <edge id=":1/4_3" function="internal">
        <lane id=":1/4_3_0" index="0" speed="13.90" length="10.43" shape="1394.56,992.22 1397.37,994.90 1399.69,996.82 1401.52,997.97 1402.85,998.35"/>
    </edge>
    <edge id=":1/4_4" function="internal">
        <lane id=":1/4_4_0" index="0" speed="13.90" length="7.17" shape="1394.56,992.22 1397.47,996.11 1398.03,998.35"/>
    </edge>
    <edge id=":1/4_5" function="internal">
        <lane id=":1/4_5_0" index="0" speed="13.90" length="7.30" shape="1394.56,992.22 1397.85,996.35 1398.15,998.35"/>
    </edge>
    <edge id=":1/4_13" function="internal">
        <lane id=":1/4_13_0" index="0" speed="13.90" length="10.57" shape="1398.03,998.35 1398.45,1000.00 1397.47,1003.89 1394.56,1007.78"/>
    </edge>
    <edge id=":1/4_14" function="internal">
        <lane id=":1/4_14_0" index="0" speed="13.90" length="9.21" shape="1398.15,998.35 1398.29,999.29 1395.90,1001.06 1390.65,1001.65"/>
    </edge>
    <edge id=":1/4_6" function="internal">
        <lane id=":1/4_6_0" index="0" speed="13.90" length="6.64" shape="1390.65,998.35 1392.76,998.11 1393.73,997.40 1393.55,996.22 1392.22,994.56"/>
    </edge>
    <edge id=":1/4_7" function="internal">
        <lane id=":1/4_7_0" index="0" speed="13.90" length="12.19" shape="1390.65,998.35 1393.97,998.35 1396.75,998.35 1399.53,998.35 1402.85,998.35"/>
    </edge>
    <edge id=":1/4_8" function="internal">
        <lane id=":1/4_8_0" index="0" speed="13.90" length="4.02" shape="1390.65,998.35 1394.65,998.80"/>
    </edge>
    <edge id=":1/4_15" function="internal">
        <lane id=":1/4_15_0" index="0" speed="13.90" length="12.49" shape="1394.65,998.80 1395.90,998.94 1398.29,1000.71 1397.85,1003.65 1394.56,1007.78"/>
    </edge>
    <edge id=":1/4_9" function="internal">
        <lane id=":1/4_9_0" index="0" speed="13.90" length="6.64" shape="1392.22,1005.44 1393.55,1003.78 1393.73,1002.60 1392.76,1001.89 1390.65,1001.65"/>
    </edge>
    <edge id=":1/4_10" function="internal">
        <lane id=":1/4_10_0" index="0" speed="13.90" length="12.41" shape="1392.22,1005.44 1394.27,1002.72 1394.95,1000.00 1394.27,997.28 1392.22,994.56"/>
    </edge>
    <edge id=":1/4_11" function="internal">
        <lane id=":1/4_11_0" index="0" speed="13.90" length="5.68" shape="1392.22,1005.44 1395.55,1002.34 1396.44,1001.65"/>
    </edge>
    <edge id=":1/4_16" function="internal">
        <lane id=":1/4_16_0" index="0" speed="13.90" length="7.31" shape="1396.44,1001.65 1398.43,1000.12 1400.86,998.79 1402.85,998.35"/>
    </edge>
    <edge id=":1/5_0" function="internal">
        <lane id=":1/5_0_0" index="0" speed="13.90" length="10.43" shape="1502.85,1001.65 1501.52,1002.03 1499.69,1003.18 1497.37,1005.10 1494.56,1007.78"/>
    </edge>
    <edge id=":1/5_1" function="internal">
        <lane id=":1/5_1_0" index="0" speed="13.90" length="12.19" shape="1502.85,1001.65 1499.53,1001.65 1496.75,1001.65 1493.97,1001.65 1490.65,1001.65"/>
    </edge>
    <edge id=":1/5_2" function="internal">
        <lane id=":1/5_2_0" index="0" speed="13.90" length="4.81" shape="1502.85,1001.65 1500.86,1001.21 1498.43,999.88"/>
    </edge>
    <edge id=":1/5_12" function="internal">
        <lane id=":1/5_12_0" index="0" speed="13.90" length="8.18" shape="1498.43,999.88 1495.55,997.66 1492.22,994.56"/>
    </edge>
    <edge id=":1/5_3" function="internal">
        <lane id=":1/5_3_0" index="0" speed="13.90" length="10.43" shape="1494.56,992.22 1497.37,994.90 1499.69,996.82 1501.52,997.97 1502.85,998.35"/>
    </edge>
    <edge id=":1/5_4" function="internal">
        <lane id=":1/5_4_0" index="0" speed="13.90" length="7.17" shape="1494.56,992.22 1497.47,996.11 1498.03,998.35"/>
    </edge>
    <edge id=":1/5_5" function="internal">
        <lane id=":1/5_5_0" index="0" speed="13.90" length="7.30" shape="1494.56,992.22 1497.85,996.35 1498.15,998.35"/>
    </edge>
    <edge id=":1/5_13" function="internal">
        <lane id=":1/5_13_0" index="0" speed="13.90" length="10.57" shape="1498.03,998.35 1498.45,1000.00 1497.47,1003.89 1494.56,1007.78"/>
    </edge>
    <edge id=":1/5_14" function="internal">
        <lane id=":1/5_14_0" index="0" speed="13.90" length="9.21" shape="1498.15,998.35 1498.29,999.29 1495.90,1001.06 1490.65,1001.65"/>
    </edge>
    <edge id=":1/5_6" function="internal">
        <lane id=":1/5_6_0" index="0" speed="13.90" length="6.64" shape="1490.65,998.35 1492.76,998.11 1493.73,997.40 1493.55,996.22 1492.22,994.56"/>
    </edge>
    <edge id=":1/5_7" function="internal">
        <lane id=":1/5_7_0" index="0" speed="13.90" length="12.19" shape="1490.65,998.35 1493.97,998.35 1496.75,998.35 1499.53,998.35 1502.85,998.35"/>
    </edge>
    <edge id=":1/5_8" function="internal">
        <lane id=":1/5_8_0" index="0" speed="13.90" length="4.02" shape="1490.65,998.35 1494.65,998.80"/>
    </edge>
    <edge id=":1/5_15" function="internal">
        <lane id=":1/5_15_0" index="0" speed="13.90" length="12.49" shape="1494.65,998.80 1495.90,998.94 1498.29,1000.71 1497.85,1003.65 1494.56,1007.78"/>
    </edge>
    <edge id=":1/5_9" function="internal">
        <lane id=":1/5_9_0" index="0" speed="13.90" length="6.64" shape="1492.22,1005.44 1493.55,1003.78 1493.73,1002.60 1492.76,1001.89 1490.65,1001.65"/>
    </edge>
    <edge id=":1/5_10" function="internal">
        <lane id=":1/5_10_0" index="0" speed="13.90" length="12.41" shape="1492.22,1005.44 1494.27,1002.72 1494.95,1000.00 1494.27,997.28 1492.22,994.56"/>
    </edge>
    <edge id=":1/5_11" function="internal">
        <lane id=":1/5_11_0" index="0" speed="13.90" length="5.68" shape="1492.22,1005.44 1495.55,1002.34 1496.44,1001.65"/>
    </edge>
    <edge id=":1/5_16" function="internal">
        <lane id=":1/5_16_0" index="0" speed="13.90" length="7.31" shape="1496.44,1001.65 1498.43,1000.12 1500.86,998.79 1502.85,998.35"/>
    </edge>
    <edge id=":1/6_0" function="internal">
        <lane id=":1/6_0_0" index="0" speed="13.90" length="10.43" shape="1602.85,1001.65 1601.52,1002.03 1599.69,1003.18 1597.37,1005.10 1594.56,1007.78"/>
    </edge>
    <edge id=":1/6_1" function="internal">
        <lane id=":1/6_1_0" index="0" speed="13.90" length="12.19" shape="1602.85,1001.65 1599.53,1001.65 1596.75,1001.65 1593.97,1001.65 1590.65,1001.65"/>
    </edge>
    <edge id=":1/6_2" function="internal">
        <lane id=":1/6_2_0" index="0" speed="13.90" length="4.81" shape="1602.85,1001.65 1600.86,1001.21 1598.43,999.88"/>
    </edge>
    <edge id=":1/6_12" function="internal">
        <lane id=":1/6_12_0" index="0" speed="13.90" length="8.18" shape="1598.43,999.88 1595.55,997.66 1592.22,994.56"/>
    </edge>
    <edge id=":1/6_3" function="internal">
        <lane id=":1/6_3_0" index="0" speed="13.90" length="10.43" shape="1594.56,992.22 1597.37,994.90 1599.69,996.82 1601.52,997.97 1602.85,998.35"/>
    </edge>
    <edge id=":1/6_4" function="internal">
        <lane id=":1/6_4_0" index="0" speed="13.90" length="7.17" shape="1594.56,992.22 1597.47,996.11 1598.03,998.35"/>
    </edge>
    <edge id=":1/6_5" function="internal">
        <lane id=":1/6_5_0" index="0" speed="13.90" length="7.30" shape="1594.56,992.22 1597.85,996.35 1598.15,998.35"/>
    </edge>
    <edge id=":1/6_13" function="internal">
        <lane id=":1/6_13_0" index="0" speed="13.90" length="10.57" shape="1598.03,998.35 1598.45,1000.00 1597.47,1003.89 1594.56,1007.78"/>
    </edge>
    <edge id=":1/6_14" function="internal">
        <lane id=":1/6_14_0" index="0" speed="13.90" length="9.21" shape="1598.15,998.35 1598.29,999.29 1595.90,1001.06 1590.65,1001.65"/>
    </edge>
    <edge id=":1/6_6" function="internal">
        <lane id=":1/6_6_0" index="0" speed="13.90" length="6.64" shape="1590.65,998.35 1592.76,998.11 1593.73,997.40 1593.55,996.22 1592.22,994.56"/>
    </edge>
    <edge id=":1/6_7" function="internal">
        <lane id=":1/6_7_0" index="0" speed="13.90" length="12.19" shape="1590.65,998.35 1593.97,998.35 1596.75,998.35 1599.53,998.35 1602.85,998.35"/>
    </edge>
    <edge id=":1/6_8" function="internal">
        <lane id=":1/6_8_0" index="0" speed="13.90" length="4.02" shape="1590.65,998.35 1594.65,998.80"/>
    </edge>
    <edge id=":1/6_15" function="internal">
        <lane id=":1/6_15_0" index="0" speed="13.90" length="12.49" shape="1594.65,998.80 1595.90,998.94 1598.29,1000.71 1597.85,1003.65 1594.56,1007.78"/>
    </edge>
    <edge id=":1/6_9" function="internal">
        <lane id=":1/6_9_0" index="0" speed="13.90" length="6.64" shape="1592.22,1005.44 1593.55,1003.78 1593.73,1002.60 1592.76,1001.89 1590.65,1001.65"/>
    </edge>
    <edge id=":1/6_10" function="internal">
        <lane id=":1/6_10_0" index="0" speed="13.90" length="12.41" shape="1592.22,1005.44 1594.27,1002.72 1594.95,1000.00 1594.27,997.28 1592.22,994.56"/>
    </edge>
    <edge id=":1/6_11" function="internal">
        <lane id=":1/6_11_0" index="0" speed="13.90" length="5.68" shape="1592.22,1005.44 1595.55,1002.34 1596.44,1001.65"/>
    </edge>
    <edge id=":1/6_16" function="internal">
        <lane id=":1/6_16_0" index="0" speed="13.90" length="7.31" shape="1596.44,1001.65 1598.43,1000.12 1600.86,998.79 1602.85,998.35"/>
    </edge>
    <edge id=":1/7_0" function="internal">
        <lane id=":1/7_0_0" index="0" speed="13.90" length="10.43" shape="1702.85,1001.65 1701.52,1002.03 1699.69,1003.18 1697.37,1005.10 1694.56,1007.78"/>
    </edge>
    <edge id=":1/7_1" function="internal">
        <lane id=":1/7_1_0" index="0" speed="13.90" length="12.19" shape="1702.85,1001.65 1699.53,1001.65 1696.75,1001.65 1693.97,1001.65 1690.65,1001.65"/>
    </edge>
    <edge id=":1/7_2" function="internal">
        <lane id=":1/7_2_0" index="0" speed="13.90" length="4.81" shape="1702.85,1001.65 1700.86,1001.21 1698.43,999.88"/>
    </edge>
    <edge id=":1/7_12" function="internal">
        <lane id=":1/7_12_0" index="0" speed="13.90" length="8.18" shape="1698.43,999.88 1695.55,997.66 1692.22,994.56"/>
    </edge>
    <edge id=":1/7_3" function="internal">
        <lane id=":1/7_3_0" index="0" speed="13.90" length="10.43" shape="1694.56,992.22 1697.37,994.90 1699.69,996.82 1701.52,997.97 1702.85,998.35"/>
    </edge>
    <edge id=":1/7_4" function="internal">
        <lane id=":1/7_4_0" index="0" speed="13.90" length="7.17" shape="1694.56,992.22 1697.47,996.11 1698.03,998.35"/>
    </edge>
    <edge id=":1/7_5" function="internal">
        <lane id=":1/7_5_0" index="0" speed="13.90" length="7.30" shape="1694.56,992.22 1697.85,996.35 1698.15,998.35"/>
    </edge>
    <edge id=":1/7_13" function="internal">
        <lane id=":1/7_13_0" index="0" speed="13.90" length="10.57" shape="1698.03,998.35 1698.45,1000.00 1697.47,1003.89 1694.56,1007.78"/>
    </edge>
    <edge id=":1/7_14" function="internal">
        <lane id=":1/7_14_0" index="0" speed="13.90" length="9.21" shape="1698.15,998.35 1698.29,999.29 1695.90,1001.06 1690.65,1001.65"/>
    </edge>
    <edge id=":1/7_6" function="internal">
        <lane id=":1/7_6_0" index="0" speed="13.90" length="6.64" shape="1690.65,998.35 1692.76,998.11 1693.73,997.40 1693.55,996.22 1692.22,994.56"/>
    </edge>
    <edge id=":1/7_7" function="internal">
        <lane id=":1/7_7_0" index="0" speed="13.90" length="12.19" shape="1690.65,998.35 1693.97,998.35 1696.75,998.35 1699.53,998.35 1702.85,998.35"/>
    </edge>
    <edge id=":1/7_8" function="internal">
        <lane id=":1/7_8_0" index="0" speed="13.90" length="4.02" shape="1690.65,998.35 1694.65,998.80"/>
    </edge>
    <edge id=":1/7_15" function="internal">
        <lane id=":1/7_15_0" index="0" speed="13.90" length="12.49" shape="1694.65,998.80 1695.90,998.94 1698.29,1000.71 1697.85,1003.65 1694.56,1007.78"/>
    </edge>
    <edge id=":1/7_9" function="internal">
        <lane id=":1/7_9_0" index="0" speed="13.90" length="6.64" shape="1692.22,1005.44 1693.55,1003.78 1693.73,1002.60 1692.76,1001.89 1690.65,1001.65"/>
    </edge>
    <edge id=":1/7_10" function="internal">
        <lane id=":1/7_10_0" index="0" speed="13.90" length="12.41" shape="1692.22,1005.44 1694.27,1002.72 1694.95,1000.00 1694.27,997.28 1692.22,994.56"/>
    </edge>
    <edge id=":1/7_11" function="internal">
        <lane id=":1/7_11_0" index="0" speed="13.90" length="5.27" shape="1692.22,1005.44 1694.67,1002.84 1695.89,1001.65"/>
    </edge>
    <edge id=":1/7_16" function="internal">
        <lane id=":1/7_16_0" index="0" speed="13.90" length="7.92" shape="1695.89,1001.65 1696.99,1000.57 1699.57,998.96 1702.85,998.35"/>
    </edge>
    <edge id=":1/8_0" function="internal">
        <lane id=":1/8_0_0" index="0" speed="13.90" length="10.43" shape="1802.85,1001.65 1801.52,1002.03 1799.69,1003.18 1797.37,1005.10 1794.56,1007.78"/>
    </edge>
    <edge id=":1/8_1" function="internal">
        <lane id=":1/8_1_0" index="0" speed="13.90" length="12.19" shape="1802.85,1001.65 1799.53,1001.65 1796.75,1001.65 1793.97,1001.65 1790.65,1001.65"/>
    </edge>
    <edge id=":1/8_2" function="internal">
        <lane id=":1/8_2_0" index="0" speed="13.90" length="4.81" shape="1802.85,1001.65 1800.86,1001.21 1798.43,999.88"/>
    </edge>
    <edge id=":1/8_12" function="internal">
        <lane id=":1/8_12_0" index="0" speed="13.90" length="8.18" shape="1798.43,999.88 1795.55,997.66 1792.22,994.56"/>
    </edge>
    <edge id=":1/8_3" function="internal">
        <lane id=":1/8_3_0" index="0" speed="13.90" length="10.43" shape="1794.56,992.22 1797.37,994.90 1799.69,996.82 1801.52,997.97 1802.85,998.35"/>
    </edge>
    <edge id=":1/8_4" function="internal">