<?xml version="1.0" encoding="UTF-8"?>

<!-- generated on Mon Dec  8 08:16:16 2014 by SUMO netgenerate Version 0.19.0
<?xml version="1.0" encoding="UTF-8"?>

<configuration xmlns:xsi="http://www.w3.org/2001/XMLSchema-instance" xsi:noNamespaceSchemaLocation="http://sumo-sim.org/xsd/netgenerateConfiguration.xsd">

    <spider_network>
        <spider value="true"/>
        <spider.arm-number value="5"/>
        <spider.circle-number value="5"/>
    </spider_network>

    <output>
        <output-file value="net.net.xml"/>
    </output>

    <tls_building>
        <tls.guess value="true"/>
    </tls_building>

    <processing>
        <no-turnarounds value="true"/>
    </processing>

</configuration>
-->

<net version="0.13" xmlns:xsi="http://www.w3.org/2001/XMLSchema-instance" xsi:noNamespaceSchemaLocation="http://sumo-sim.org/xsd/net_file.xsd">

    <location netOffset="404.51,475.53" convBoundary="0.00,0.00,904.51,951.06" origBoundary="-404.51,-475.53,500.00,475.53" projParameter="!"/>

    <edge id=":1_0" function="internal">
        <lane id=":1_0_0" index="0" speed="13.90" length="5.43" shape="404.79,481.72 404.10,480.31 403.18,479.62 402.03,479.64 400.65,480.37"/>
    </edge>
    <edge id=":1_1" function="internal">
        <lane id=":1_1_0" index="0" speed="13.90" length="10.63" shape="404.79,481.72 403.75,478.82 402.68,476.85 401.15,475.23 398.71,473.35"/>
    </edge>
    <edge id=":1_2" function="internal">
        <lane id=":1_2_0" index="0" speed="13.90" length="12.64" shape="404.79,481.72 403.92,478.45 403.63,475.53 403.92,472.61 404.79,469.34"/>
    </edge>
    <edge id=":1_3" function="internal">
        <lane id=":1_3_0" index="0" speed="13.90" length="3.64" shape="404.79,481.72 404.19,478.29 404.23,478.14"/>
    </edge>
    <edge id=":1_20" function="internal">
        <lane id=":1_20_0" index="0" speed="13.90" length="8.45" shape="404.23,478.14 404.94,475.84 407.03,474.37 410.48,473.88"/>
    </edge>
    <edge id=":1_4" function="internal">
        <lane id=":1_4_0" index="0" speed="13.90" length="5.43" shape="410.48,477.18 408.93,477.40 407.99,478.06 407.65,479.16 407.92,480.70"/>
    </edge>
    <edge id=":1_5" function="internal">
        <lane id=":1_5_0" index="0" speed="13.90" length="10.63" shape="410.48,477.18 407.40,477.26 405.21,477.67 403.19,478.63 400.65,480.37"/>
    </edge>
    <edge id=":1_6" function="internal">
        <lane id=":1_6_0" index="0" speed="13.90" length="12.64" shape="410.48,477.18 407.10,476.99 404.24,476.37 401.55,475.19 398.71,473.35"/>
    </edge>
    <edge id=":1_7" function="internal">
        <lane id=":1_7_0" index="0" speed="13.90" length="3.64" shape="410.48,477.18 407.03,476.69 406.90,476.60"/>
    </edge>
    <edge id=":1_21" function="internal">
        <lane id=":1_21_0" index="0" speed="13.90" length="8.45" shape="406.90,476.60 404.94,475.22 404.19,472.77 404.79,469.34"/>
    </edge>
    <edge id=":1_8" function="internal">
        <lane id=":1_8_0" index="0" speed="13.90" length="5.43" shape="407.92,470.36 407.65,471.90 407.99,473.00 408.93,473.66 410.48,473.88"/>
    </edge>
    <edge id=":1_9" function="internal">
        <lane id=":1_9_0" index="0" speed="13.90" length="10.63" shape="407.92,470.36 407.05,473.31 406.76,475.53 407.05,477.75 407.92,480.70"/>
    </edge>
    <edge id=":1_10" function="internal">
        <lane id=":1_10_0" index="0" speed="13.90" length="12.64" shape="407.92,470.36 406.70,473.52 405.22,476.05 403.27,478.24 400.65,480.37"/>
    </edge>
    <edge id=":1_11" function="internal">
        <lane id=":1_11_0" index="0" speed="13.90" length="3.64" shape="407.92,470.36 406.39,473.48 406.27,473.58"/>
    </edge>
    <edge id=":1_22" function="internal">
        <lane id=":1_22_0" index="0" speed="13.90" length="8.45" shape="406.27,473.58 404.35,475.03 401.78,474.98 398.71,473.35"/>
    </edge>
    <edge id=":1_12" function="internal">
        <lane id=":1_12_0" index="0" speed="13.90" length="5.43" shape="400.65,470.68 402.03,471.41 403.18,471.43 404.10,470.74 404.79,469.34"/>
    </edge>
    <edge id=":1_13" function="internal">
        <lane id=":1_13_0" index="0" speed="13.90" length="10.63" shape="400.65,470.68 403.19,472.42 405.21,473.38 407.40,473.79 410.48,473.88"/>
    </edge>
    <edge id=":1_14" function="internal">
        <lane id=":1_14_0" index="0" speed="13.90" length="12.64" shape="400.65,470.68 403.27,472.82 405.22,475.01 406.70,477.54 407.92,480.70"/>
    </edge>
    <edge id=":1_15" function="internal">
        <lane id=":1_15_0" index="0" speed="13.90" length="3.64" shape="400.65,470.68 403.15,473.11 403.20,473.26"/>
    </edge>
    <edge id=":1_23" function="internal">
        <lane id=":1_23_0" index="0" speed="13.90" length="8.45" shape="403.20,473.26 403.98,475.53 403.15,477.95 400.65,480.37"/>
    </edge>
    <edge id=":1_16" function="internal">
        <lane id=":1_16_0" index="0" speed="13.90" length="5.43" shape="398.71,477.70 399.83,476.62 400.20,475.53 399.83,474.44 398.71,473.35"/>
    </edge>
    <edge id=":1_17" function="internal">
        <lane id=":1_17_0" index="0" speed="13.90" length="10.63" shape="398.71,477.70 401.15,475.83 402.68,474.20 403.75,472.24 404.79,469.34"/>
    </edge>
    <edge id=":1_18" function="internal">
        <lane id=":1_18_0" index="0" speed="13.90" length="12.64" shape="398.71,477.70 401.55,475.87 404.24,474.69 407.10,474.06 410.48,473.88"/>
    </edge>
    <edge id=":1_19" function="internal">
        <lane id=":1_19_0" index="0" speed="13.90" length="3.64" shape="398.71,477.70 401.78,476.07 401.94,476.07"/>
    </edge>
    <edge id=":1_24" function="internal">
        <lane id=":1_24_0" index="0" speed="13.90" length="8.45" shape="401.94,476.07 404.35,476.03 406.39,477.57 407.92,480.70"/>
    </edge>
    <edge id=":1/1_0" function="internal">
        <lane id=":1/1_0_0" index="0" speed="13.90" length="8.81" shape="507.66,477.18 506.39,477.53 504.89,478.60 503.17,480.38 501.21,482.87"/>
    </edge>
    <edge id=":1/1_1" function="internal">
        <lane id=":1/1_1_0" index="0" speed="13.90" length="11.03" shape="507.66,477.18 504.53,477.18 502.15,477.18 499.76,477.18 496.63,477.18"/>
    </edge>
    <edge id=":1/1_2" function="internal">
        <lane id=":1/1_2_0" index="0" speed="13.90" length="4.15" shape="507.66,477.18 505.60,476.74 503.85,475.69"/>
    </edge>
    <edge id=":1/1_12" function="internal">
        <lane id=":1/1_12_0" index="0" speed="13.90" length="7.73" shape="503.85,475.69 503.39,475.41 501.03,473.21 498.54,470.12"/>
    </edge>
    <edge id=":1/1_3" function="internal">
        <lane id=":1/1_3_0" index="0" speed="13.90" length="8.81" shape="501.21,468.18 503.17,470.68 504.89,472.45 506.39,473.52 507.66,473.88"/>
    </edge>
    <edge id=":1/1_4" function="internal">
        <lane id=":1/1_4_0" index="0" speed="13.90" length="6.24" shape="501.21,468.18 503.21,471.86 503.58,473.88"/>
    </edge>
    <edge id=":1/1_5" function="internal">
        <lane id=":1/1_5_0" index="0" speed="13.90" length="6.25" shape="501.21,468.18 503.38,472.12 503.35,473.88"/>
    </edge>
    <edge id=":1/1_13" function="internal">
        <lane id=":1/1_13_0" index="0" speed="13.90" length="9.59" shape="503.58,473.88 503.88,475.53 503.21,479.20 501.21,482.87"/>
    </edge>
    <edge id=":1/1_14" function="internal">
        <lane id=":1/1_14_0" index="0" speed="13.90" length="8.35" shape="503.35,473.88 503.33,474.93 501.09,476.62 496.63,477.18"/>
    </edge>
    <edge id=":1/1_6" function="internal">
        <lane id=":1/1_6_0" index="0" speed="13.90" length="6.10" shape="496.63,473.88 498.49,473.64 499.43,472.94 499.45,471.77 498.54,470.12"/>
    </edge>
    <edge id=":1/1_7" function="internal">
        <lane id=":1/1_7_0" index="0" speed="13.90" length="11.03" shape="496.63,473.88 499.76,473.88 502.15,473.88 504.53,473.88 507.66,473.88"/>
    </edge>
    <edge id=":1/1_8" function="internal">
        <lane id=":1/1_8_0" index="0" speed="13.90" length="3.69" shape="496.63,473.88 500.29,474.34"/>
    </edge>
    <edge id=":1/1_15" function="internal">
        <lane id=":1/1_15_0" index="0" speed="13.90" length="10.91" shape="500.29,474.34 501.09,474.44 503.33,476.13 503.38,478.94 501.21,482.87"/>
    </edge>
    <edge id=":1/1_9" function="internal">
        <lane id=":1/1_9_0" index="0" speed="13.90" length="6.10" shape="498.54,480.93 499.45,479.29 499.43,478.12 498.49,477.41 496.63,477.18"/>
    </edge>
    <edge id=":1/1_10" function="internal">
        <lane id=":1/1_10_0" index="0" speed="13.90" length="11.65" shape="498.54,480.93 500.02,478.23 500.51,475.53 500.02,472.83 498.54,470.12"/>
    </edge>
    <edge id=":1/1_11" function="internal">
        <lane id=":1/1_11_0" index="0" speed="13.90" length="4.94" shape="498.54,480.93 501.03,477.85 501.75,477.18"/>
    </edge>
    <edge id=":1/1_16" function="internal">
        <lane id=":1/1_16_0" index="0" speed="13.90" length="6.94" shape="501.75,477.18 503.39,475.64 505.60,474.32 507.66,473.88"/>
    </edge>
    <edge id=":1/2_0" function="internal">
        <lane id=":1/2_0_0" index="0" speed="13.90" length="8.81" shape="607.66,477.18 606.39,477.53 604.89,478.60 603.17,480.38 601.21,482.87"/>
    </edge>
    <edge id=":1/2_1" function="internal">
        <lane id=":1/2_1_0" index="0" speed="13.90" length="11.03" shape="607.66,477.18 604.53,477.18 602.15,477.18 599.76,477.18 596.63,477.18"/>
    </edge>
    <edge id=":1/2_2" function="internal">
        <lane id=":1/2_2_0" index="0" speed="13.90" length="4.15" shape="607.66,477.18 605.60,476.74 603.85,475.69"/>
    </edge>
    <edge id=":1/2_12" function="internal">
        <lane id=":1/2_12_0" index="0" speed="13.90" length="7.73" shape="603.85,475.69 603.39,475.41 601.03,473.21 598.54,470.12"/>
    </edge>
    <edge id=":1/2_3" function="internal">
        <lane id=":1/2_3_0" index="0" speed="13.90" length="8.81" shape="601.21,468.18 603.17,470.68 604.89,472.45 606.39,473.52 607.66,473.88"/>
    </edge>
    <edge id=":1/2_4" function="internal">
        <lane id=":1/2_4_0" index="0" speed="13.90" length="6.24" shape="601.21,468.18 603.21,471.86 603.58,473.88"/>
    </edge>
    <edge id=":1/2_5" function="internal">
        <lane id=":1/2_5_0" index="0" speed="13.90" length="6.25" shape="601.21,468.18 603.38,472.12 603.35,473.88"/>
    </edge>
    <edge id=":1/2_13" function="internal">
        <lane id=":1/2_13_0" index="0" speed="13.90" length="9.59" shape="603.58,473.88 603.88,475.53 603.21,479.20 601.21,482.87"/>
    </edge>
    <edge id=":1/2_14" function="internal">
        <lane id=":1/2_14_0" index="0" speed="13.90" length="8.35" shape="603.35,473.88 603.33,474.93 601.09,476.62 596.63,477.18"/>
    </edge>
    <edge id=":1/2_6" function="internal">
        <lane id=":1/2_6_0" index="0" speed="13.90" length="6.10" shape="596.63,473.88 598.49,473.64 599.43,472.94 599.45,471.77 598.54,470.12"/>
    </edge>
    <edge id=":1/2_7" function="internal">
        <lane id=":1/2_7_0" index="0" speed="13.90" length="11.03" shape="596.63,473.88 599.76,473.88 602.15,473.88 604.53,473.88 607.66,473.88"/>
    </edge>
    <edge id=":1/2_8" function="internal">
        <lane id=":1/2_8_0" index="0" speed="13.90" length="3.69" shape="596.63,473.88 600.29,474.34"/>
    </edge>
    <edge id=":1/2_15" function="internal">
        <lane id=":1/2_15_0" index="0" speed="13.90" length="10.91" shape="600.29,474.34 601.09,474.44 603.33,476.13 603.38,478.94 601.21,482.87"/>
    </edge>
    <edge id=":1/2_9" function="internal">
        <lane id=":1/2_9_0" index="0" speed="13.90" length="6.10" shape="598.54,480.93 599.45,479.29 599.43,478.12 598.49,477.41 596.63,477.18"/>
    </edge>
    <edge id=":1/2_10" function="internal">
        <lane id=":1/2_10_0" index="0" speed="13.90" length="11.65" shape="598.54,480.93 600.02,478.23 600.51,475.53 600.02,472.83 598.54,470.12"/>
    </edge>
    <edge id=":1/2_11" function="internal">
        <lane id=":1/2_11_0" index="0" speed="13.90" length="4.94" shape="598.54,480.93 601.03,477.85 601.75,477.18"/>
    </edge>
    <edge id=":1/2_16" function="internal">
        <lane id=":1/2_16_0" index="0" speed="13.90" length="6.94" shape="601.75,477.18 603.39,475.64 605.60,474.32 607.66,473.88"/>
    </edge>
    <edge id=":1/3_0" function="internal">
        <lane id=":1/3_0_0" index="0" speed="13.90" length="8.81" shape="707.66,477.18 706.39,477.53 704.89,478.60 703.17,480.38 701.21,482.87"/>
    </edge>
    <edge id=":1/3_1" function="internal">
        <lane id=":1/3_1_0" index="0" speed="13.90" length="11.03" shape="707.66,477.18 704.53,477.18 702.15,477.18 699.76,477.18 696.63,477.18"/>
    </edge>
    <edge id=":1/3_2" function="internal">
        <lane id=":1/3_2_0" index="0" speed="13.90" length="4.15" shape="707.66,477.18 705.60,476.74 703.85,475.69"/>
    </edge>
    <edge id=":1/3_12" function="internal">
        <lane id=":1/3_12_0" index="0" speed="13.90" length="7.73" shape="703.85,475.69 703.39,475.41 701.03,473.21 698.54,470.12"/>
    </edge>
    <edge id=":1/3_3" function="internal">
        <lane id=":1/3_3_0" index="0" speed="13.90" length="8.81" shape="701.21,468.18 703.17,470.68 704.89,472.45 706.39,473.52 707.66,473.88"/>
    </edge>
    <edge id=":1/3_4" function="internal">
        <lane id=":1/3_4_0" index="0" speed="13.90" length="6.24" shape="701.21,468.18 703.21,471.86 703.58,473.88"/>
    </edge>
    <edge id=":1/3_5" function="internal">
        <lane id=":1/3_5_0" index="0" speed="13.90" length="6.25" shape="701.21,468.18 703.38,472.12 703.35,473.88"/>
    </edge>
    <edge id=":1/3_13" function="internal">
        <lane id=":1/3_13_0" index="0" speed="13.90" length="9.59" shape="703.58,473.88 703.88,475.53 703.21,479.20 701.21,482.87"/>
    </edge>
    <edge id=":1/3_14" function="internal">
        <lane id=":1/3_14_0" index="0" speed="13.90" length="8.35" shape="703.35,473.88 703.33,474.93 701.09,476.62 696.63,477.18"/>
    </edge>
    <edge id=":1/3_6" function="internal">
        <lane id=":1/3_6_0" index="0" speed="13.90" length="6.10" shape="696.63,473.88 698.49,473.64 699.43,472.94 699.45,471.77 698.54,470.12"/>
    </edge>
    <edge id=":1/3_7" function="internal">
        <lane id=":1/3_7_0" index="0" speed="13.90" length="11.03" shape="696.63,473.88 699.76,473.88 702.15,473.88 704.53,473.88 707.66,473.88"/>
    </edge>
    <edge id=":1/3_8" function="internal">
        <lane id=":1/3_8_0" index="0" speed="13.90" length="3.69" shape="696.63,473.88 700.29,474.34"/>
    </edge>
    <edge id=":1/3_15" function="internal">
        <lane id=":1/3_15_0" index="0" speed="13.90" length="10.91" shape="700.29,474.34 701.09,474.44 703.33,476.13 703.38,478.94 701.21,482.87"/>
    </edge>
    <edge id=":1/3_9" function="internal">
        <lane id=":1/3_9_0" index="0" speed="13.90" length="6.10" shape="698.54,480.93 699.45,479.29 699.43,478.12 698.49,477.41 696.63,477.18"/>
    </edge>
    <edge id=":1/3_10" function="internal">
        <lane id=":1/3_10_0" index="0" speed="13.90" length="11.65" shape="698.54,480.93 700.02,478.23 700.51,475.53 700.02,472.83 698.54,470.12"/>
    </edge>
    <edge id=":1/3_11" function="internal">
        <lane id=":1/3_11_0" index="0" speed="13.90" length="4.94" shape="698.54,480.93 701.03,477.85 701.75,477.18"/>
    </edge>
    <edge id=":1/3_16" function="internal">
        <lane id=":1/3_16_0" index="0" speed="13.90" length="6.94" shape="701.75,477.18 703.39,475.64 705.60,474.32 707.66,473.88"/>
    </edge>
    <edge id=":1/4_0" function="internal">
        <lane id=":1/4_0_0" index="0" speed="13.90" length="8.81" shape="807.66,477.18 806.39,477.53 804.89,478.60 803.17,480.38 801.21,482.87"/>
    </edge>
    <edge id=":1/4_1" function="internal">
        <lane id=":1/4_1_0" index="0" speed="13.90" length="11.03" shape="807.66,477.18 804.53,477.18 802.15,477.18 799.76,477.18 796.63,477.18"/>
    </edge>
    <edge id=":1/4_2" function="internal">
        <lane id=":1/4_2_0" index="0" speed="13.90" length="4.15" shape="807.66,477.18 805.60,476.74 803.85,475.69"/>
    </edge>
    <edge id=":1/4_12" function="internal">
        <lane id=":1/4_12_0" index="0" speed="13.90" length="7.73" shape="803.85,475.69 803.39,475.41 801.03,473.21 798.54,470.12"/>
    </edge>
    <edge id=":1/4_3" function="internal">
        <lane id=":1/4_3_0" index="0" speed="13.90" length="8.81" shape="801.21,468.18 803.17,470.68 804.89,472.45 806.39,473.52 807.66,473.88"/>
    </edge>
    <edge id=":1/4_4" function="internal">
        <lane id=":1/4_4_0" index="0" speed="13.90" length="6.24" shape="801.21,468.18 803.21,471.86 803.58,473.88"/>
    </edge>
    <edge id=":1/4_5" function="internal">
        <lane id=":1/4_5_0" index="0" speed="13.90" length="6.25" shape="801.21,468.18 803.38,472.12 803.35,473.88"/>
    </edge>
    <edge id=":1/4_13" function="internal">
        <lane id=":1/4_13_0" index="0" speed="13.90" length="9.59" shape="803.58,473.88 803.88,475.53 803.21,479.20 801.21,482.87"/>
    </edge>
    <edge id=":1/4_14" function="internal">
        <lane id=":1/4_14_0" index="0" speed="13.90" length="8.35" shape="803.35,473.88 803.33,474.93 801.09,476.62 796.63,477.18"/>
    </edge>
    <edge id=":1/4_6" function="internal">
        <lane id=":1/4_6_0" index="0" speed="13.90" length="6.10" shape="796.63,473.88 798.49,473.64 799.43,472.94 799.45,471.77 798.54,470.12"/>
    </edge>
    <edge id=":1/4_7" function="internal">
        <lane id=":1/4_7_0" index="0" speed="13.90" length="11.03" shape="796.63,473.88 799.76,473.88 802.15,473.88 804.53,473.88 807.66,473.88"/>
    </edge>
    <edge id=":1/4_8" function="internal">
        <lane id=":1/4_8_0" index="0" speed="13.90" length="3.69" shape="796.63,473.88 800.29,474.34"/>
    </edge>
    <edge id=":1/4_15" function="internal">
        <lane id=":1/4_15_0" index="0" speed="13.90" length="10.91" shape="800.29,474.34 801.09,474.44 803.33,476.13 803.38,478.94 801.21,482.87"/>
    </edge>
    <edge id=":1/4_9" function="internal">
        <lane id=":1/4_9_0" index="0" speed="13.90" length="6.10" shape="798.54,480.93 799.45,479.29 799.43,478.12 798.49,477.41 796.63,477.18"/>
    </edge>
    <edge id=":1/4_10" function="internal">
        <lane id=":1/4_10_0" index="0" speed="13.90" length="11.65" shape="798.54,480.93 800.02,478.23 800.51,475.53 800.02,472.83 798.54,470.12"/>
    </edge>
    <edge id=":1/4_11" function="internal">
        <lane id=":1/4_11_0" index="0" speed="13.90" length="4.94" shape="798.54,480.93 801.03,477.85 801.75,477.18"/>
    </edge>
    <edge id=":1/4_16" function="internal">
        <lane id=":1/4_16_0" index="0" speed="13.90" length="6.94" shape="801.75,477.18 803.39,475.64 805.60,474.32 807.66,473.88"/>
    </edge>
    <edge id=":1/5_0" function="internal">
        <lane id=":1/5_0_0" index="0" speed="13.90" length="10.78" shape="901.21,468.18 903.21,471.86 903.88,475.53 903.37,478.35"/>
    </edge>
    <edge id=":1/5_1" function="internal">
        <lane id=":1/5_1_0" index="0" speed="13.90" length="10.91" shape="901.21,468.18 903.38,472.12 903.33,474.93 901.09,476.62 900.29,476.72"/>
    </edge>
    <edge id=":1/5_6" function="internal">
        <lane id=":1/5_6_0" index="0" speed="13.90" length="5.04" shape="903.37,478.35 903.21,479.20 901.21,482.87"/>
    </edge>
    <edge id=":1/5_7" function="internal">
        <lane id=":1/5_7_0" index="0" speed="13.90" length="3.69" shape="900.29,476.72 896.63,477.18"/>
    </edge>
    <edge id=":1/5_2" function="internal">
        <lane id=":1/5_2_0" index="0" speed="13.90" length="6.10" shape="896.63,473.88 898.49,473.64 899.43,472.94 899.45,471.77 898.54,470.12"/>
    </edge>
    <edge id=":1/5_3" function="internal">
        <lane id=":1/5_3_0" index="0" speed="13.90" length="3.69" shape="896.63,473.88 900.29,474.34"/>
    </edge>
    <edge id=":1/5_8" function="internal">
        <lane id=":1/5_8_0" index="0" speed="13.90" length="10.91" shape="900.29,474.34 901.09,474.44 903.33,476.13 903.38,478.94 901.21,482.87"/>
    </edge>
    <edge id=":1/5_4" function="internal">
        <lane id=":1/5_4_0" index="0" speed="13.90" length="6.10" shape="898.54,480.93 899.45,479.29 899.43,478.12 898.49,477.41 896.63,477.18"/>
    </edge>
    <edge id=":1/5_5" function="internal">
        <lane id=":1/5_5_0" index="0" speed="13.90" length="11.65" shape="898.54,480.93 900.02,478.23 900.51,475.53 900.02,472.83 898.54,470.12"/>
    </edge>
    <edge id=":2/1_0" function="internal">
        <lane id=":2/1_0_0" index="0" speed="13.90" length="8.81" shape="434.82,574.15 434.08,573.05 432.61,571.95 430.38,570.86 427.41,569.77"/>
    </edge>
    <edge id=":2/1_1" function="internal">
        <lane id=":2/1_1_0" index="0" speed="13.90" length="11.03" shape="434.82,574.15 433.85,571.17 433.11,568.90 432.37,566.63 431.41,563.65"/>
    </edge>
    <edge id=":2/1_2" function="internal">
        <lane id=":2/1_2_0" index="0" speed="13.90" length="4.15" shape="434.82,574.15 434.60,572.04 435.05,570.06"/>
    </edge>
    <edge id=":2/1_12" function="internal">
        <lane id=":2/1_12_0" index="0" speed="13.90" length="7.73" shape="435.05,570.06 435.17,569.53 436.54,566.61 438.71,563.29"/>
    </edge>
    <edge id=":2/1_3" function="internal">
        <lane id=":2/1_3_0" index="0" speed="13.90" length="8.81" shape="441.38,565.23 439.61,567.86 438.45,570.05 437.90,571.81 437.95,573.13"/>
    </edge>
    <edge id=":2/1_4" function="internal">
        <lane id=":2/1_4_0" index="0" speed="13.90" length="6.24" shape="441.38,565.23 438.50,568.27 436.69,569.24"/>
    </edge>
    <edge id=":2/1_5" function="internal">
        <lane id=":2/1_5_0" index="0" speed="13.90" length="6.25" shape="441.38,565.23 438.30,568.50 436.62,569.02"/>
    </edge>
    <edge id=":2/1_13" function="internal">
        <lane id=":2/1_13_0" index="0" speed="13.90" length="9.59" shape="436.69,569.24 435.22,570.04 431.52,570.54 427.41,569.77"/>
    </edge>
    <edge id=":2/1_14" function="internal">
        <lane id=":2/1_14_0" index="0" speed="13.90" length="8.35" shape="436.62,569.02 435.62,569.33 433.32,567.71 431.41,563.65"/>
    </edge>
    <edge id=":2/1_6" function="internal">
        <lane id=":2/1_6_0" index="0" speed="13.90" length="6.10" shape="434.54,562.63 435.34,564.33 436.30,565.00 437.42,564.66 438.71,563.29"/>
    </edge>
    <edge id=":2/1_7" function="internal">
        <lane id=":2/1_7_0" index="0" speed="13.90" length="11.03" shape="434.54,562.63 435.51,565.61 436.25,567.88 436.99,570.15 437.95,573.13"/>
    </edge>
    <edge id=":2/1_8" function="internal">
        <lane id=":2/1_8_0" index="0" speed="13.90" length="3.69" shape="434.54,562.63 435.24,566.25"/>
    </edge>
    <edge id=":2/1_15" function="internal">
        <lane id=":2/1_15_0" index="0" speed="13.90" length="10.91" shape="435.24,566.25 435.39,567.04 434.48,569.70 431.82,570.61 427.41,569.77"/>
    </edge>
    <edge id=":2/1_9" function="internal">
        <lane id=":2/1_9_0" index="0" speed="13.90" length="6.10" shape="428.43,566.63 430.27,566.98 431.38,566.60 431.76,565.49 431.41,563.65"/>
    </edge>
    <edge id=":2/1_10" function="internal">
        <lane id=":2/1_10_0" index="0" speed="13.90" length="11.65" shape="428.43,566.63 431.45,567.20 434.17,566.83 436.59,565.53 438.71,563.29"/>
    </edge>
    <edge id=":2/1_11" function="internal">
        <lane id=":2/1_11_0" index="0" speed="13.90" length="4.94" shape="428.43,566.63 432.13,568.05 432.99,568.52"/>
    </edge>
    <edge id=":2/1_16" function="internal">
        <lane id=":2/1_16_0" index="0" speed="13.90" length="6.94" shape="432.99,568.52 434.96,569.60 436.90,571.29 437.95,573.13"/>
    </edge>
    <edge id=":2/2_0" function="internal">
        <lane id=":2/2_0_0" index="0" speed="13.90" length="8.81" shape="465.72,669.25 464.99,668.15 463.51,667.06 461.28,665.96 458.31,664.87"/>
    </edge>
    <edge id=":2/2_1" function="internal">
        <lane id=":2/2_1_0" index="0" speed="13.90" length="11.03" shape="465.72,669.25 464.75,666.27 464.01,664.00 463.28,661.73 462.31,658.76"/>
    </edge>
    <edge id=":2/2_2" function="internal">
        <lane id=":2/2_2_0" index="0" speed="13.90" length="4.15" shape="465.72,669.25 465.50,667.15 465.95,665.16"/>
    </edge>
    <edge id=":2/2_12" function="internal">
        <lane id=":2/2_12_0" index="0" speed="13.90" length="7.73" shape="465.95,665.16 466.07,664.64 467.44,661.72 469.61,658.40"/>
    </edge>
    <edge id=":2/2_3" function="internal">
        <lane id=":2/2_3_0" index="0" speed="13.90" length="8.81" shape="472.28,660.34 470.51,662.96 469.35,665.16 468.80,666.91 468.86,668.23"/>
    </edge>
    <edge id=":2/2_4" function="internal">
        <lane id=":2/2_4_0" index="0" speed="13.90" length="6.24" shape="472.28,660.34 469.40,663.37 467.59,664.35"/>
    </edge>
    <edge id=":2/2_5" function="internal">
        <lane id=":2/2_5_0" index="0" speed="13.90" length="6.25" shape="472.28,660.34 469.20,663.61 467.52,664.13"/>
    </edge>
    <edge id=":2/2_13" function="internal">
        <lane id=":2/2_13_0" index="0" speed="13.90" length="9.59" shape="467.59,664.35 466.12,665.14 462.42,665.64 458.31,664.87"/>
    </edge>
    <edge id=":2/2_14" function="internal">
        <lane id=":2/2_14_0" index="0" speed="13.90" length="8.35" shape="467.52,664.13 466.52,664.44 464.22,662.82 462.31,658.76"/>
    </edge>
    <edge id=":2/2_6" function="internal">
        <lane id=":2/2_6_0" index="0" speed="13.90" length="6.10" shape="465.45,657.74 466.24,659.43 467.20,660.11 468.33,659.76 469.61,658.40"/>
    </edge>
    <edge id=":2/2_7" function="internal">
        <lane id=":2/2_7_0" index="0" speed="13.90" length="11.03" shape="465.45,657.74 466.41,660.71 467.15,662.98 467.89,665.25 468.86,668.23"/>
    </edge>
    <edge id=":2/2_8" function="internal">
        <lane id=":2/2_8_0" index="0" speed="13.90" length="3.69" shape="465.45,657.74 466.14,661.36"/>
    </edge>
    <edge id=":2/2_15" function="internal">
        <lane id=":2/2_15_0" index="0" speed="13.90" length="10.91" shape="466.14,661.36 466.29,662.15 465.38,664.81 462.72,665.72 458.31,664.87"/>
    </edge>
    <edge id=":2/2_9" function="internal">
        <lane id=":2/2_9_0" index="0" speed="13.90" length="6.10" shape="459.33,661.74 461.17,662.09 462.28,661.71 462.66,660.60 462.31,658.76"/>
    </edge>
    <edge id=":2/2_10" function="internal">
        <lane id=":2/2_10_0" index="0" speed="13.90" length="11.65" shape="459.33,661.74 462.35,662.30 465.08,661.93 467.49,660.63 469.61,658.40"/>
    </edge>
    <edge id=":2/2_11" function="internal">
        <lane id=":2/2_11_0" index="0" speed="13.90" length="4.94" shape="459.33,661.74 463.03,663.15 463.89,663.62"/>
    </edge>
    <edge id=":2/2_16" function="internal">
        <lane id=":2/2_16_0" index="0" speed="13.90" length="6.94" shape="463.89,663.62 465.86,664.71 467.80,666.40 468.86,668.23"/>
    </edge>
    <edge id=":2/3_0" function="internal">
        <lane id=":2/3_0_0" index="0" speed="13.90" length="8.81" shape="496.62,764.36 495.89,763.26 494.41,762.16 492.18,761.07 489.21,759.98"/>
    </edge>
    <edge id=":2/3_1" function="internal">
        <lane id=":2/3_1_0" index="0" speed="13.90" length="11.03" shape="496.62,764.36 495.65,761.38 494.91,759.11 494.18,756.84 493.21,753.86"/>
    </edge>
    <edge id=":2/3_2" function="internal">
        <lane id=":2/3_2_0" index="0" speed="13.90" length="4.15" shape="496.62,764.36 496.40,762.25 496.85,760.27"/>
    </edge>
    <edge id=":2/3_12" function="internal">
        <lane id=":2/3_12_0" index="0" speed="13.90" length="7.73" shape="496.85,760.27 496.97,759.74 498.34,756.83 500.51,753.50"/>
    </edge>
    <edge id=":2/3_3" function="internal">
        <lane id=":2/3_3_0" index="0" speed="13.90" length="8.81" shape="503.18,755.44 501.41,758.07 500.26,760.26 499.70,762.02 499.76,763.34"/>
    </edge>
    <edge id=":2/3_4" function="internal">
        <lane id=":2/3_4_0" index="0" speed="13.90" length="6.24" shape="503.18,755.44 500.31,758.48 498.50,759.45"/>
    </edge>
    <edge id=":2/3_5" function="internal">
        <lane id=":2/3_5_0" index="0" speed="13.90" length="6.25" shape="503.18,755.44 500.11,758.72 498.42,759.23"/>
    </edge>
    <edge id=":2/3_13" function="internal">
        <lane id=":2/3_13_0" index="0" speed="13.90" length="9.59" shape="498.50,759.45 497.02,760.25 493.32,760.75 489.21,759.98"/>
    </edge>
    <edge id=":2/3_14" function="internal">
        <lane id=":2/3_14_0" index="0" speed="13.90" length="8.35" shape="498.42,759.23 497.42,759.54 495.12,757.93 493.21,753.86"/>
    </edge>
    <edge id=":2/3_6" function="internal">
        <lane id=":2/3_6_0" index="0" speed="13.90" length="6.10" shape="496.35,752.84 497.15,754.54 498.11,755.21 499.23,754.87 500.51,753.50"/>
    </edge>
    <edge id=":2/3_7" function="internal">
        <lane id=":2/3_7_0" index="0" speed="13.90" length="11.03" shape="496.35,752.84 497.32,755.82 498.05,758.09 498.79,760.36 499.76,763.34"/>
    </edge>
    <edge id=":2/3_8" function="internal">
        <lane id=":2/3_8_0" index="0" speed="13.90" length="3.69" shape="496.35,752.84 497.04,756.47"/>
    </edge>
    <edge id=":2/3_15" function="internal">
        <lane id=":2/3_15_0" index="0" speed="13.90" length="10.91" shape="497.04,756.47 497.19,757.25 496.28,759.91 493.62,760.82 489.21,759.98"/>
    </edge>
    <edge id=":2/3_9" function="internal">
        <lane id=":2/3_9_0" index="0" speed="13.90" length="6.10" shape="490.23,756.84 492.07,757.19 493.18,756.81 493.56,755.70 493.21,753.86"/>
    </edge>
    <edge id=":2/3_10" function="internal">
        <lane id=":2/3_10_0" index="0" speed="13.90" length="11.65" shape="490.23,756.84 493.26,757.41 495.98,757.04 498.39,755.74 500.51,753.50"/>
    </edge>
    <edge id=":2/3_11" function="internal">
        <lane id=":2/3_11_0" index="0" speed="13.90" length="4.94" shape="490.23,756.84 493.94,758.26 494.79,758.73"/>
    </edge>
    <edge id=":2/3_16" function="internal">