<?xml version="1.0" encoding="UTF-8" standalone="no"?><routes xmlns:xsi="http://www.w3.org/2001/XMLSchema-instance" xsi:noNamespaceSchemaLocation="http://sumo-sim.org/xsd/routes_file.xsd"><vType accel="1.8" color="red" decel="4.5" id="eme" length="5" maxSpeed="140" sigma="0.5" vClass="emergency"/><vType accel="0.4" color="blue" decel="8.5" id="bus" length="10" maxSpeed="40" sigma="0.5" vClass="bus"/><vType accel="2.0" decel="4.5" id="nor" length="5" maxSpeed="120" sigma="0.5"/><vehicle depart="0.00" id="0" type="nor">
        <route edges="5/1to1/1 1/1to2/1 2/1to2/2 2/2to2/3 2/3to2/4 2/4to3/4"/>
    </vehicle><vehicle depart="1.00" id="1" type="nor">
        <route edges="5/2to1/2 1/2to1/1 1/1to1 1to3/1 3/1to3/2 3/2to3/3 3/3to2/3"/>
    </vehicle><vehicle depart="2.00" id="2" type="nor">
        <route edges="4/4to5/4 5/4to5/3 5/3to4/3 4/3to4/4 4/4to4/5 4/5to3/5"/>
    </vehicle><vehicle depart="3.00" id="3" type="nor">
        <route edges="2/4to1/4 1/4to1/5 1/5to5/5"/>
    </vehicle><vehicle depart="4.00" id="4" type="nor">
        <route edges="5/3to4/3 4/3to4/2 4/2to4/1 4/1to1 1to2/1 2/1to2/2 2/2to2/3 2/3to2/4 2/4to2/5 2/5to3/5"/>
    </vehicle><vehicle depart="5.00" id="5" type="nor">
        <route edges="3/3to3/2 3/2to3/1 3/1to1 1to5/1 5/1to5/2 5/2to5/3 5/3to5/4 5/4to5/5 5/5to1/5"/>
    </vehicle><vehicle depart="6.00" id="6" type="nor">
        <route edges="4/3to5/3 5/3to5/2 5/2to5/1 5/1to1 1to3/1 3/1to3/2 3/2to3/3 3/3to3/4 3/4to3/5 3/5to4/5"/>
    </vehicle><vehicle depart="7.00" id="7" type="nor">
        <route edges="4/3to5/3 5/3to5/4 5/4to5/5 5/5to4/5"/>
    </vehicle><vehicle depart="8.00" id="8" type="bus">
        <route edges="5/5to4/5 4/5to4/4 4/4to4/3 4/3to4/2 4/2to4/1 4/1to5/1 5/1to1"/>
    </vehicle><vehicle depart="9.00" id="9" type="nor">
        <route edges="5/5to1/5 1/5to1/4 1/4to1/3 1/3to1/2 1/2to2/2"/>
    </vehicle><vehicle depart="10.00" id="10" type="nor">
        <route edges="1/5to2/5 2/5to2/4 2/4to3/4 3/4to3/5 3/5to2/5"/>
    </vehicle><vehicle depart="11.00" id="11" type="nor">
        <route edges="2/4to3/4 3/4to3/3 3/3to3/2 3/2to3/1 3/1to4/1 4/1to4/2 4/2to3/2"/>
    </vehicle><vehicle depart="12.00" id="12" type="nor">
        <route edges="1/5to2/5 2/5to2/4 2/4to2/3 2/3to2/2 2/2to2/1 2/1to1 1to4/1 4/1to4/2 4/2to4/3 4/3to4/4 4/4to4/5 4/5to3/5"/>
    </vehicle><vehicle depart="13.00" id="13" type="nor">
        <route edges="5/2to4/2 4/2to3/2 3/2to3/3 3/3to3/4 3/4to4/4"/>
    </vehicle><vehicle depart="14.00" id="14" type="nor">
        <route edges="1/4to5/4 5/4to5/3 5/3to5/2 5/2to5/1 5/1to1 1to3/1 3/1to3/2 3/2to3/3 3/3to3/4 3/4to2/4"/>
    </vehicle><vehicle depart="15.00" id="15" type="bus">
        <route edges="2/1to1/1 1/1to1 1to2/1 2/1to2/2 2/2to2/3 2/3to2/4 2/4to3/4"/>
    </vehicle><vehicle depart="16.00" id="16" type="nor">
        <route edges="1/5to2/5 2/5to2/4 2/4to2/3 2/3to2/2 2/2to2/1 2/1to1 1to5/1 5/1to5/2 5/2to5/3 5/3to5/4 5/4to4/4"/>
    </vehicle><vehicle depart="17.00" id="17" type="nor">
        <route edges="4/4to3/4 3/4to3/3 3/3to3/2 3/2to3/1 3/1to2/1"/>
    </vehicle><vehicle depart="18.00" id="18" type="nor">
        <route edges="3/4to3/5 3/5to2/5 2/5to2/4 2/4to1/4 1/4to1/5"/>
    </vehicle><vehicle depart="19.00" id="19" type="nor">
        <route edges="2/4to2/5 2/5to1/5 1/5to1/4 1/4to1/3 1/3to1/2 1/2to5/2"/>
    </vehicle><vehicle depart="20.00" id="20" type="nor">
        <route edges="3/3to3/4 3/4to2/4 2/4to1/4 1/4to1/3"/>
    </vehicle><vehicle depart="21.00" id="21" type="nor">
        <route edges="4/4to3/4 3/4to3/3 3/3to3/2 3/2to3/1 3/1to1 1to5/1 5/1to5/2 5/2to5/3 5/3to5/4 5/4to1/4"/>
    </vehicle><vehicle depart="22.00" id="22" type="nor">
        <route edges="4/3to4/4 4/4to3/4 3/4to2/4 2/4to1/4"/>
    </vehicle><vehicle depart="23.00" id="23" type="nor">
        <route edges="3/2to4/2 4/2to4/1 4/1to1 1to1/1 1/1to1/2 1/2to1/3 1/3to1/4 1/4to1/5 1/5to2/5"/>
    </vehicle><vehicle depart="24.00" id="24" type="nor">
        <route edges="2/5to1/5 1/5to1/4 1/4to1/3 1/3to1/2 1/2to1/1 1/1to1 1to4/1 4/1to4/2 4/2to4/3 4/3to4/4 4/4to4/5 4/5to5/5"/>
    </vehicle><vehicle depart="25.00" id="25" type="nor">
        <route edges="1/5to5/5 5/5to5/4 5/4to5/3 5/3to5/2 5/2to4/2 4/2to4/3 4/3to5/3"/>
    </vehicle><vehicle depart="26.00" id="26" type="nor">
        <route edges="1/5to5/5 5/5to5/4 5/4to5/3 5/3to1/3 1/3to2/3 2/3to2/2"/>
    </vehicle><vehicle depart="27.00" id="27" type="nor">
        <route edges="1/2to2/2 2/2to2/1 2/1to1/1 1/1to1/2 1/2to1/3 1/3to5/3"/>
    </vehicle><vehicle depart="28.00" id="28" type="nor">
        <route edges="4/4to4/5 4/5to3/5 3/5to3/4 3/4to3/3 3/3to3/2 3/2to2/2 2/2to2/1"/>
    </vehicle><vehicle depart="29.00" id="29" type="bus">
        <route edges="2/5to3/5 3/5to3/4 3/4to3/3 3/3to3/2 3/2to3/1 3/1to4/1 4/1to4/2"/>
    </vehicle><vehicle depart="30.00" id="30" type="nor">
        <route edges="4/4to3/4 3/4to3/3 3/3to4/3"/>
    </vehicle><vehicle depart="31.00" id="31" type="nor">
        <route edges="5/4to1/4 1/4to1/3 1/3to1/2 1/2to1/1 1/1to1 1to4/1 4/1to4/2 4/2to5/2"/>
    </vehicle><vehicle depart="32.00" id="32" type="bus">
        <route edges="2/5to1/5 1/5to1/4 1/4to2/4 2/4to3/4"/>
    </vehicle><vehicle depart="33.00" id="33" type="eme">
        <route edges="3/2to2/2 2/2to2/1 2/1to3/1 3/1to3/2 3/2to3/3 3/3to3/4 3/4to3/5 3/5to4/5"/>
    </vehicle><vehicle depart="34.00" id="34" type="nor">
        <route edges="2/4to3/4 3/4to3/3 3/3to3/2 3/2to3/1 3/1to1 1to5/1 5/1to5/2 5/2to5/3 5/3to4/3"/>
    </vehicle><vehicle depart="35.00" id="35" type="nor">
        <route edges="3/4to2/4 2/4to2/3 2/3to3/3 3/3to3/4 3/4to3/5 3/5to2/5"/>
    </vehicle><vehicle depart="36.00" id="36" type="nor">
        <route edges="2/2to2/1 2/1to1 1to4/1 4/1to4/2"/>
    </vehicle><vehicle depart="37.00" id="37" type="nor">
        <route edges="2/2to2/3 2/3to1/3 1/3to5/3 5/3to5/4 5/4to5/5 5/5to4/5"/>
    </vehicle><vehicle depart="38.00" id="38" type="nor">
        <route edges="3/3to3/2 3/2to2/2 2/2to2/3 2/3to1/3"/>
    </vehicle><vehicle depart="39.00" id="39" type="bus">
        <route edges="5/5to4/5 4/5to3/5"/>
    </vehicle><vehicle depart="40.00" id="40" type="nor">
        <route edges="5/5to4/5 4/5to4/4 4/4to4/3 4/3to4/2 4/2to5/2 5/2to1/2"/>
    </vehicle><vehicle depart="41.00" id="41" type="nor">
        <route edges="1/3to2/3 2/3to2/4 2/4to2/5 2/5to1/5"/>
    </vehicle><vehicle depart="42.00" id="42" type="nor">
        <route edges="2/5to3/5 3/5to3/4 3/4to3/3 3/3to4/3 4/3to4/4 4/4to3/4"/>
    </vehicle><vehicle depart="43.00" id="43" type="bus">
        <route edges="3/4to4/4 4/4to4/3 4/3to4/2 4/2to4/1 4/1to1 1to2/1 2/1to2/2 2/2to1/2"/>
    </vehicle><vehicle depart="44.00" id="44" type="nor">
        <route edges="2/5to1/5 1/5to1/4 1/4to1/3 1/3to1/2 1/2to1/1 1/1to1 1to3/1 3/1to3/2 3/2to3/3 3/3to3/4 3/4to4/4"/>
    </vehicle><vehicle depart="45.00" id="45" type="nor">
        <route edges="1/5to5/5 5/5to5/4 5/4to5/3 5/3to1/3 1/3to1/4 1/4to5/4"/>
    </vehicle><vehicle depart="46.00" id="46" type="nor">
        <route edges="1/3to5/3 5/3to4/3 4/3to4/4 4/4to5/4"/>
    </vehicle><vehicle depart="47.00" id="47" type="nor">
        <route edges="1/5to5/5 5/5to5/4 5/4to5/3 5/3to5/2 5/2to5/1 5/1to1 1to3/1 3/1to3/2 3/2to3/3 3/3to2/3"/>
    </vehicle><vehicle depart="48.00" id="48" type="bus">
        <route edges="1to5/1 5/1to1/1 1/1to2/1 2/1to2/2 2/2to2/3 2/3to2/4 2/4to1/4"/>
    </vehicle><vehicle depart="49.00" id="49" type="nor">
        <route edges="5/5to1/5 1/5to1/4 1/4to1/3 1/3to1/2 1/2to1/1 1/1to5/1 5/1to5/2 5/2to1/2"/>
    </vehicle><vehicle depart="50.00" id="50" type="nor">
        <route edges="2/1to3/1 3/1to1 1to1/1 1/1to1/2 1/2to1/3 1/3to1/4 1/4to1/5 1/5to5/5"/>
    </vehicle><vehicle depart="51.00" id="51" type="bus">
        <route edges="4/2to5/2 5/2to1/2 1/2to1/3 1/3to5/3"/>
    </vehicle><vehicle depart="52.00" id="52" type="nor">
        <route edges="1/5to2/5 2/5to2/4 2/4to1/4"/>
    </vehicle><vehicle depart="53.00" id="53" type="nor">
        <route edges="1to5/1 5/1to4/1 4/1to3/1 3/1to3/2 3/2to3/3 3/3to4/3"/>
    </vehicle><vehicle depart="54.00" id="54" type="nor">
        <route edges="5/4to4/4 4/4to4/3 4/3to4/2 4/2to4/1 4/1to1 1to3/1 3/1to4/1 4/1to4/2 4/2to4/3 4/3to4/4 4/4to5/4"/>
    </vehicle><vehicle depart="55.00" id="55" type="nor">
        <route edges="5/4to4/4 4/4to4/3 4/3to4/2 4/2to4/1 4/1to1 1to1/1 1/1to1/2 1/2to1/3 1/3to1/4 1/4to1/5 1/5to5/5"/>
    </vehicle><vehicle depart="56.00" id="56" type="nor">
        <route edges="1/4to2/4 2/4to2/5 2/5to3/5"/>
    </vehicle><vehicle depart="57.00" id="57" type="nor">
        <route edges="2/3to1/3 1/3to1/2 1/2to2/2 2/2to2/3 2/3to2/4 2/4to2/5 2/5to1/5"/>
    </vehicle><vehicle depart="58.00" id="58" type="nor">
        <route edges="1/4to2/4 2/4to2/3 2/3to3/3 3/3to3/4 3/4to2/4"/>
    </vehicle><vehicle depart="59.00" id="59" type="nor">
        <route edges="4/3to4/4 4/4to5/4 5/4to5/3 5/3to1/3"/>
    </vehicle><vehicle depart="60.00" id="60" type="nor">
        <route edges="5/2to1/2 1/2to1/3 1/3to1/4 1/4to1/5 1/5to2/5"/>
    </vehicle><vehicle depart="61.00" id="61" type="nor">
        <route edges="4/5to3/5 3/5to3/4 3/4to3/3 3/3to3/2 3/2to3/1 3/1to1 1to1/1 1/1to1/2 1/2to1/3 1/3to1/4 1/4to1/5 1/5to5/5"/>
    </vehicle><vehicle depart="62.00" id="62" type="nor">
        <route edges="4/2to3/2 3/2to3/1 3/1to1 1to2/1 2/1to3/1 3/1to3/2"/>
    </vehicle><vehicle depart="63.00" id="63" type="nor">
        <route edges="4/1to5/1 5/1to1/1 1/1to1/2 1/2to2/2"/>
    </vehicle><vehicle depart="64.00" id="64" type="nor">
        <route edges="5/3to4/3 4/3to4/2 4/2to4/1 4/1to3/1"/>
    </vehicle><vehicle depart="65.00" id="65" type="nor">
        <route edges="2/5to2/4 2/4to3/4 3/4to4/4"/>
    </vehicle><vehicle depart="66.00" id="66" type="nor">
        <route edges="1/4to2/4 2/4to3/4 3/4to3/3"/>
    </vehicle><vehicle depart="67.00" id="67" type="nor">
        <route edges="5/4to1/4 1/4to1/3 1/3to1/2 1/2to1/1 1/1to1 1to3/1 3/1to3/2 3/2to3/3 3/3to3/4 3/4to2/4"/>
    </vehicle><vehicle depart="68.00" id="68" type="nor">
        <route edges="1/3to2/3 2/3to3/3 3/3to3/4 3/4to4/4"/>
    </vehicle><vehicle depart="69.00" id="69" type="nor">
        <route edges="5/3to1/3 1/3to1/2 1/2to1/1 1/1to1 1to3/1 3/1to3/2"/>
    </vehicle><vehicle depart="70.00" id="70" type="nor">
        <route edges="1/5to2/5 2/5to2/4 2/4to2/3 2/3to2/2 2/2to3/2 3/2to3/3 3/3to2/3"/>
    </vehicle><vehicle depart="71.00" id="71" type="nor">
        <route edges="5/3to5/2 5/2to5/1 5/1to1 1to3/1 3/1to3/2 3/2to3/3 3/3to3/4"/>
    </vehicle><vehicle depart="72.00" id="72" type="nor">
        <route edges="3/3to2/3 2/3to2/4 2/4to3/4"/>
    </vehicle><vehicle depart="73.00" id="73" type="nor">
        <route edges="5/5to1/5 1/5to1/4 1/4to1/3 1/3to1/2 1/2to1/1 1/1to2/1 2/1to2/2 2/2to1/2"/>
    </vehicle><vehicle depart="74.00" id="74" type="nor">
        <route edges="5/5to4/5 4/5to4/4 4/4to4/3 4/3to3/3 3/3to3/4 3/4to4/4"/>
    </vehicle><vehicle depart="75.00" id="75" type="nor">
        <route edges="5/3to1/3 1/3to2/3 2/3to3/3 3/3to3/2"/>
    </vehicle><vehicle depart="76.00" id="76" type="eme">
        <route edges="3/3to4/3 4/3to4/2 4/2to3/2 3/2to3/3 3/3to2/3"/>
    </vehicle><vehicle depart="77.00" id="77" type="nor">
        <route edges="1/2to2/2 2/2to3/2 3/2to4/2 4/2to4/1"/>
    </vehicle><vehicle depart="78.00" id="78" type="eme">
        <route edges="5/5to1/5 1/5to1/4 1/4to2/4 2/4to3/4"/>
    </vehicle><vehicle depart="79.00" id="79" type="bus">
        <route edges="3/4to2/4 2/4to2/3 2/3to2/2 2/2to2/1 2/1to3/1 3/1to1"/>
    </vehicle><vehicle depart="80.00" id="80" type="nor">
        <route edges="2/2to2/3 2/3to1/3 1/3to1/2 1/2to2/2"/>
    </vehicle><vehicle depart="81.00" id="81" type="bus">
        <route edges="5/4to1/4 1/4to1/3 1/3to5/3 5/3to4/3 4/3to4/2"/>
    </vehicle><vehicle depart="82.00" id="82" type="nor">
        <route edges="3/5to4/5 4/5to4/4 4/4to4/3 4/3to4/2 4/2to4/1 4/1to1 1to3/1 3/1to4/1"/>
    </vehicle><vehicle depart="83.00" id="83" type="nor">
        <route edges="4/5to3/5 3/5to3/4 3/4to3/3 3/3to3/2 3/2to3/1 3/1to1 1to1/1 1/1to1/2 1/2to1/3 1/3to1/4 1/4to2/4"/>
    </vehicle><vehicle depart="84.00" id="84" type="nor">
        <route edges="1/5to5/5 5/5to5/4 5/4to5/3 5/3to4/3 4/3to3/3"/>
    </vehicle><vehicle depart="85.00" id="85" type="nor">
        <route edges="5/5to5/4 5/4to5/3 5/3to4/3 4/3to3/3"/>
    </vehicle><vehicle depart="86.00" id="86" type="nor">
        <route edges="3/1to1 1to2/1 2/1to2/2 2/2to2/3 2/3to2/4 2/4to1/4"/>
    </vehicle><vehicle depart="87.00" id="87" type="nor">
        <route edges="4/1to3/1 3/1to3/2 3/2to3/3 3/3to3/4 3/4to4/4"/>
    </vehicle><vehicle depart="88.00" id="88" type="nor">
        <route edges="2/3to1/3 1/3to1/2 1/2to5/2 5/2to5/3 5/3to1/3"/>
    </vehicle><vehicle depart="89.00" id="89" type="nor">
        <route edges="2/4to1/4 1/4to1/3 1/3to1/2 1/2to1/1 1/1to1 1to3/1 3/1to3/2 3/2to3/3 3/3to3/4 3/4to3/5 3/5to4/5"/>
    </vehicle><vehicle depart="90.00" id="90" type="nor">
        <route edges="1/5to5/5 5/5to5/4"/>
    </vehicle><vehicle depart="91.00" id="91" type="nor">
        <route edges="5/4to5/5 5/5to4/5 4/5to4/4 4/4to4/3 4/3to4/2 4/2to4/1 4/1to1 1to1/1 1/1to1/2 1/2to1/3 1/3to1/4 1/4to1/5"/>
    </vehicle><vehicle depart="92.00" id="92" type="nor">
        <route edges="3/3to2/3 2/3to2/2 2/2to1/2 1/2to1/3 1/3to2/3"/>
    </vehicle><vehicle depart="93.00" id="93" type="nor">
        <route edges="2/4to2/5 2/5to1/5 1/5to1/4 1/4to1/3 1/3to1/2 1/2to1/1 1/1to5/1 5/1to5/2 5/2to1/2"/>
    </vehicle><vehicle depart="94.00" id="94" type="nor">
        <route edges="2/5to3/5 3/5to3/4 3/4to3/3 3/3to3/2 3/2to3/1 3/1to4/1 4/1to4/2"/>
    </vehicle><vehicle depart="95.00" id="95" type="nor">
        <route edges="4/5to3/5 3/5to2/5 2/5to1/5"/>
    </vehicle><vehicle depart="96.00" id="96" type="nor">
        <route edges="2/5to3/5 3/5to4/5"/>
    </vehicle><vehicle depart="97.00" id="97" type="bus">
        <route edges="4/4to3/4 3/4to3/3 3/3to2/3 2/3to2/4 2/4to3/4"/>
    </vehicle><vehicle depart="98.00" id="98" type="nor">
        <route edges="5/2to1/2 1/2to1/1 1/1to5/1 5/1to5/2 5/2to5/3 5/3to5/4 5/4to5/5"/>
    </vehicle><vehicle depart="99.00" id="99" type="nor">
        <route edges="3/5to4/5 4/5to4/4 4/4to4/3 4/3to3/3 3/3to2/3"/>
    </vehicle><vehicle depart="100.00" id="100" type="nor">
        <route edges="4/3to5/3 5/3to5/4 5/4to1/4"/>
    </vehicle><vehicle depart="101.00" id="101" type="nor">
        <route edges="1/2to2/2 2/2to2/1 2/1to1 1to5/1 5/1to5/2 5/2to5/3 5/3to5/4 5/4to5/5 5/5to4/5"/>
    </vehicle><vehicle depart="102.00" id="102" type="nor">
        <route edges="3/4to3/3 3/3to3/2 3/2to4/2 4/2to5/2"/>
    </vehicle><vehicle depart="103.00" id="103" type="nor">
        <route edges="1/5to2/5 2/5to2/4 2/4to2/3 2/3to3/3 3/3to3/2"/>
    </vehicle><vehicle depart="104.00" id="104" type="bus">
        <route edges="1/5to2/5 2/5to2/4 2/4to2/3 2/3to1/3"/>
    </vehicle><vehicle depart="105.00" id="105" type="nor">
        <route edges="3/5to3/4 3/4to3/3 3/3to3/2 3/2to3/1 3/1to1 1to1/1 1/1to1/2 1/2to1/3 1/3to1/4 1/4to1/5 1/5to5/5"/>
    </vehicle><vehicle depart="106.00" id="106" type="nor">
        <route edges="4/3to5/3 5/3to5/2 5/2to4/2 4/2to3/2 3/2to3/1"/>
    </vehicle><vehicle depart="107.00" id="107" type="nor">
        <route edges="3/5to2/5 2/5to2/4 2/4to2/3 2/3to2/2 2/2to2/1 2/1to1 1to5/1 5/1to5/2 5/2to5/3 5/3to4/3"/>
    </vehicle><vehicle depart="108.00" id="108" type="bus">
        <route edges="2/5to1/5 1/5to1/4 1/4to1/3 1/3to1/2 1/2to1/1 1/1to1 1to3/1 3/1to3/2 3/2to2/2"/>
    </vehicle><vehicle depart="109.00" id="109" type="nor">
        <route edges="2/4to2/5 2/5to1/5 1/5to1/4 1/4to5/4 5/4to5/5 5/5to1/5"/>
    </vehicle><vehicle depart="110.00" id="110" type="nor">
        <route edges="5/3to4/3 4/3to3/3 3/3to3/4 3/4to4/4 4/4to4/3"/>
    </vehicle><vehicle depart="111.00" id="111" type="bus">
        <route edges="4/2to4/1 4/1to1 1to1/1 1/1to1/2 1/2to1/3 1/3to5/3"/>
    </vehicle><vehicle depart="112.00" id="112" type="bus">
        <route edges="3/5to2/5 2/5to2/4 2/4to2/3 2/3to2/2 2/2to2/1 2/1to1 1to5/1 5/1to5/2 5/2to5/3 5/3to5/4 5/4to5/5 5/5to4/5"/>
    </vehicle><vehicle depart="113.00" id="113" type="nor">
        <route edges="1/5to2/5 2/5to2/4 2/4to2/3 2/3to2/2 2/2to2/1 2/1to3/1 3/1to3/2 3/2to2/2"/>
    </vehicle><vehicle depart="114.00" id="114" type="nor">
        <route edges="3/4to2/4 2/4to2/5 2/5to1/5"/>
    </vehicle><vehicle depart="115.00" id="115" type="nor">
        <route edges="3/5to2/5 2/5to2/4 2/4to2/3 2/3to1/3"/>
    </vehicle><vehicle depart="116.00" id="116" type="nor">
        <route edges="3/2to4/2 4/2to4/1 4/1to1 1to1/1"/>
    </vehicle><vehicle depart="117.00" id="117" type="nor">
        <route edges="1/2to5/2 5/2to5/3 5/3to5/4 5/4to1/4"/>
    </vehicle><vehicle depart="118.00" id="118" type="nor">
        <route edges="5/5to1/5 1/5to1/4 1/4to1/3 1/3to2/3 2/3to2/4"/>
    </vehicle><vehicle depart="119.00" id="119" type="nor">
        <route edges="1/4to2/4 2/4to2/3 2/3to1/3 1/3to1/4 1/4to1/5 1/5to5/5 5/5to5/4"/>
    </vehicle><vehicle depart="120.00" id="120" type="nor">
        <route edges="4/5to5/5 5/5to5/4 5/4to5/3 5/3to5/2 5/2to5/1 5/1to1 1to1/1 1/1to5/1 5/1to5/2 5/2to5/3"/>
    </vehicle><vehicle depart="121.00" id="121" type="nor">
        <route edges="2/2to3/2 3/2to3/1 3/1to2/1 2/1to2/2 2/2to2/3 2/3to2/4 2/4to1/4"/>
    </vehicle><vehicle depart="122.00" id="122" type="nor">
        <route edges="1to3/1 3/1to4/1 4/1to5/1 5/1to5/2 5/2to5/3 5/3to5/4 5/4to1/4"/>
    </vehicle><vehicle depart="123.00" id="123" type="nor">
        <route edges="1/5to1/4 1/4to1/3 1/3to1/2 1/2to1/1 1/1to1 1to3/1 3/1to3/2 3/2to3/3 3/3to3/4 3/4to3/5 3/5to4/5"/>
    </vehicle><vehicle depart="124.00" id="124" type="nor">
        <route edges="5/5to1/5 1/5to1/4 1/4to2/4 2/4to2/5 2/5to1/5"/>
    </vehicle><vehicle depart="125.00" id="125" type="nor">
        <route edges="2/5to3/5 3/5to3/4 3/4to3/3 3/3to3/2 3/2to3/1 3/1to1 1to5/1 5/1to5/2 5/2to4/2"/>
    </vehicle><vehicle depart="126.00" id="126" type="nor">
        <route edges="4/5to5/5 5/5to5/4 5/4to5/3 5/3to1/3 1/3to1/4 1/4to5/4"/>
    </vehicle><vehicle depart="127.00" id="127" type="nor">
        <route edges="3/2to4/2 4/2to4/1 4/1to1 1to1/1 1/1to1/2 1/2to1/3 1/3to2/3"/>
    </vehicle><vehicle depart="128.00" id="128" type="nor">
        <route edges="1/3to5/3 5/3to5/2 5/2to5/1 5/1to1 1to3/1 3/1to3/2 3/2to3/3 3/3to3/4 3/4to2/4"/>
    </vehicle><vehicle depart="129.00" id="129" type="nor">
        <route edges="4/4to5/4 5/4to5/3 5/3to5/2 5/2to4/2 4/2to4/1"/>
    </vehicle><vehicle depart="130.00" id="130" type="eme">
        <route edges="4/4to4/3 4/3to4/2 4/2to3/2"/>
    </vehicle><vehicle depart="131.00" id="131" type="nor">
        <route edges="4/2to4/3 4/3to3/3 3/3to3/2 3/2to3/1 3/1to4/1"/>
    </vehicle><vehicle depart="132.00" id="132" type="nor">
        <route edges="5/3to4/3 4/3to4/2 4/2to4/1 4/1to3/1 3/1to1 1to4/1"/>
    </vehicle><vehicle depart="133.00" id="133" type="nor">
        <route edges="1/4to2/4 2/4to3/4 3/4to3/5 3/5to2/5"/>
    </vehicle><vehicle depart="134.00" id="134" type="nor">
        <route edges="2/3to1/3 1/3to1/2 1/2to1/1 1/1to2/1 2/1to1"/>
    </vehicle><vehicle depart="135.00" id="135" type="nor">
        <route edges="1/4to5/4 5/4to5/3 5/3to5/2 5/2to5/1 5/1to1/1 1/1to2/1"/>
    </vehicle><vehicle depart="136.00" id="136" type="nor">
        <route edges="5/4to4/4 4/4to4/3 4/3to5/3 5/3to1/3"/>
    </vehicle><vehicle depart="137.00" id="137" type="nor">
        <route edges="4/5to4/4 4/4to4/3 4/3to5/3"/>
    </vehicle><vehicle depart="138.00" id="138" type="nor">
        <route edges="3/5to4/5 4/5to4/4 4/4to4/3 4/3to4/2 4/2to4/1 4/1to1 1to1/1 1/1to1/2 1/2to1/3 1/3to5/3"/>
    </vehicle><vehicle depart="139.00" id="139" type="nor">
        <route edges="1/3to1/2 1/2to1/1 1/1to1 1to4/1 4/1to4/2"/>
    </vehicle><vehicle depart="140.00" id="140" type="nor">
        <route edges="5/3to4/3 4/3to3/3 3/3to3/4 3/4to3/5 3/5to2/5 2/5to2/4"/>
    </vehicle><vehicle depart="141.00" id="141" type="nor">
        <route edges="3/2to4/2 4/2to4/3 4/3to4/4 4/4to4/5 4/5to3/5"/>
    </vehicle><vehicle depart="142.00" id="142" type="nor">
        <route edges="4/2to3/2 3/2to2/2 2/2to2/3 2/3to2/4 2/4to3/4"/>
    </vehicle><vehicle depart="143.00" id="143" type="nor">
        <route edges="5/3to4/3 4/3to4/2 4/2to4/1 4/1to1 1to1/1 1/1to1/2 1/2to1/3 1/3to1/4 1/4to2/4"/>
    </vehicle><vehicle depart="144.00" id="144" type="nor">
        <route edges="4/4to3/4 3/4to3/3 3/3to2/3"/>
    </vehicle><vehicle depart="145.00" id="145" type="nor">
        <route edges="4/4to5/4 5/4to1/4 1/4to2/4"/>
    </vehicle><vehicle depart="146.00" id="146" type="bus">
        <route edges="3/3to3/2 3/2to3/1 3/1to1 1to5/1 5/1to5/2 5/2to5/3 5/3to4/3"/>
    </vehicle><vehicle depart="147.00" id="147" type="nor">
        <route edges="3/4to2/4 2/4to2/3 2/3to2/2 2/2to2/1 2/1to3/1 3/1to4/1"/>
    </vehicle><vehicle depart="148.00" id="148" type="nor">
        <route edges="4/5to4/4 4/4to4/3 4/3to4/2 4/2to4/1 4/1to3/1 3/1to1"/>
    </vehicle><vehicle depart="149.00" id="149" type="nor">
        <route edges="3/2to2/2 2/2to2/1 2/1to1 1to4/1 4/1to4/2 4/2to4/3 4/3to4/4 4/4to4/5 4/5to3/5"/>
    </vehicle><vehicle depart="150.00" id="150" type="nor">
        <route edges="2/4to2/3 2/3to1/3 1/3to1/4 1/4to1/5 1/5to5/5"/>
    </vehicle><vehicle depart="151.00" id="151" type="nor">
        <route edges="5/5to1/5 1/5to2/5"/>
    </vehicle><vehicle depart="152.00" id="152" type="nor">
        <route edges="5/5to1/5 1/5to1/4 1/4to5/4 5/4to5/5 5/5to4/5"/>
    </vehicle><vehicle depart="153.00" id="153" type="nor">
        <route edges="1/4to5/4 5/4to5/3 5/3to4/3"/>
    </vehicle><vehicle depart="154.00" id="154" type="nor">
        <route edges="2/2to3/2 3/2to3/1 3/1to1 1to5/1 5/1to5/2 5/2to5/3 5/3to5/4 5/4to4/4"/>
    </vehicle><vehicle depart="155.00" id="155" type="nor">
        <route edges="5/4to4/4 4/4to4/3 4/3to5/3 5/3to5/4 5/4to5/5 5/5to1/5"/>
    </vehicle><vehicle depart="156.00" id="156" type="nor">
        <route edges="4/4to3/4 3/4to3/3 3/3to2/3 2/3to1/3"/>
    </vehicle><vehicle depart="157.00" id="157" type="nor">
        <route edges="2/5to3/5 3/5to3/4 3/4to3/3 3/3to3/2 3/2to3/1 3/1to1 1to1/1 1/1to1/2 1/2to1/3 1/3to1/4 1/4to1/5 1/5to5/5"/>
    </vehicle><vehicle depart="158.00" id="158" type="nor">
        <route edges="3/2to2/2 2/2to2/1 2/1to1/1 1/1to1/2 1/2to2/2"/>
    </vehicle><vehicle depart="159.00" id="159" type="nor">
        <route edges="4/4to5/4 5/4to1/4 1/4to2/4"/>
    </vehicle><vehicle depart="160.00" id="160" type="nor">
        <route edges="1/3to2/3 2/3to3/3 3/3to4/3"/>
    </vehicle><vehicle depart="161.00" id="161" type="nor">
        <route edges="3/3to3/4 3/4to2/4 2/4to2/5 2/5to3/5 3/5to3/4"/>
    </vehicle><vehicle depart="162.00" id="162" type="nor">
        <route edges="1/5to2/5 2/5to2/4 2/4to2/3 2/3to2/2 2/2to2/1 2/1to1 1to1/1 1/1to2/1"/>
    </vehicle><vehicle depart="163.00" id="163" type="nor">
        <route edges="2/4to2/5 2/5to1/5 1/5to1/4 1/4to2/4 2/4to3/4"/>
    </vehicle><vehicle depart="164.00" id="164" type="nor">
        <route edges="5/2to4/2 4/2to4/1 4/1to1 1to1/1 1/1to1/2 1/2to1/3 1/3to1/4 1/4to1/5"/>
    </vehicle><vehicle depart="165.00" id="165" type="nor">
        <route edges="3/4to2/4 2/4to2/3 2/3to2/2 2/2to2/1 2/1to1 1to4/1"/>
    </vehicle><vehicle depart="166.00" id="166" type="bus">
        <route edges="5/3to1/3 1/3to1/4 1/4to5/4"/>
    </vehicle><vehicle depart="167.00" id="167" type="bus">
        <route edges="1/3to5/3 5/3to5/2 5/2to1/2 1/2to1/3 1/3to1/4 1/4to1/5 1/5to5/5"/>
    </vehicle><vehicle depart="168.00" id="168" type="eme">
        <route edges="2/3to3/3 3/3to3/2 3/2to3/1 3/1to1 1to2/1 2/1to3/1 3/1to3/2 3/2to3/3 3/3to2/3"/>
    </vehicle><vehicle depart="169.00" id="169" type="nor">
        <route edges="2/3to3/3 3/3to3/2 3/2to3/1 3/1to1 1to5/1 5/1to5/2 5/2to5/3 5/3to5/4 5/4to5/5 5/5to1/5"/>
    </vehicle><vehicle depart="170.00" id="170" type="nor">
        <route edges="3/3to2/3 2/3to2/2 2/2to2/1 2/1to3/1 3/1to4/1"/>
    </vehicle><vehicle depart="171.00" id="171" type="nor">
        <route edges="3/2to2/2 2/2to2/1 2/1to3/1 3/1to3/2 3/2to3/3 3/3to2/3"/>
    </vehicle><vehicle depart="172.00" id="172" type="nor">
        <route edges="5/4to4/4 4/4to4/3 4/3to4/2 4/2to4/1 4/1to5/1 5/1to1/1"/>
    </vehicle><vehicle depart="173.00" id="173" type="nor">
        <route edges="4/2to4/3 4/3to3/3 3/3to3/2 3/2to2/2 2/2to2/3 2/3to3/3"/>
    </vehicle><vehicle depart="174.00" id="174" type="nor">
        <route edges="5/4to4/4 4/4to4/3 4/3to4/2 4/2to5/2 5/2to5/3 5/3to4/3"/>
    </vehicle><vehicle depart="175.00" id="175" type="nor">
        <route edges="3/1to3/2 3/2to3/3 3/3to2/3"/>
    </vehicle><vehicle depart="176.00" id="176" type="nor">
        <route edges="3/5to4/5 4/5to4/4 4/4to4/3 4/3to4/2 4/2to4/1 4/1to1 1to1/1 1/1to1/2 1/2to1/3 1/3to1/4 1/4to1/5 1/5to5/5"/>
    </vehicle><vehicle depart="177.00" id="177" type="nor">
        <route edges="2/3to3/3 3/3to3/4 3/4to3/5 3/5to2/5"/>
    </vehicle><vehicle depart="178.00" id="178" type="nor">
        <route edges="1/5to2/5 2/5to2/4 2/4to2/3 2/3to3/3 3/3to3/4 3/4to2/4"/>
    </vehicle><vehicle depart="179.00" id="179" type="nor">
        <route edges="2/3to3/3 3/3to3/2 3/2to2/2 2/2to2/3 2/3to2/4 2/4to1/4"/>
    </vehicle><vehicle depart="180.00" id="180" type="nor">
        <route edges="1/2to5/2 5/2to4/2 4/2to4/3 4/3to3/3 3/3to3/2"/>
    </vehicle><vehicle depart="181.00" id="181" type="nor">
        <route edges="5/3to4/3 4/3to3/3 3/3to3/4 3/4to3/5 3/5to2/5"/>
    </vehicle><vehicle depart="182.00" id="182" type="nor">
        <route edges="4/5to5/5 5/5to5/4 5/4to5/3 5/3to5/2 5/2to4/2 4/2to4/3"/>
    </vehicle><vehicle depart="183.00" id="183" type="nor">
        <route edges="2/3to2/4 2/4to1/4 1/4to5/4"/>
    </vehicle><vehicle depart="184.00" id="184" type="nor">
        <route edges="2/3to3/3 3/3to3/2 3/2to3/1 3/1to1 1to5/1 5/1to5/2 5/2to5/3 5/3to5/4 5/4to5/5 5/5to4/5"/>
    </vehicle><vehicle depart="185.00" id="185" type="nor">
        <route edges="4/1to5/1 5/1to1 1to2/1 2/1to2/2 2/2to2/3 2/3to3/3"/>
    </vehicle><vehicle depart="186.00" id="186" type="nor">
        <route edges="3/1to4/1 4/1to4/2 4/2to4/3 4/3to4/4 4/4to5/4"/>
    </vehicle><vehicle depart="187.00" id="187" type="nor">
        <route edges="1/5to2/5 2/5to2/4 2/4to2/3 2/3to2/2 2/2to2/1 2/1to1 1to5/1 5/1to5/2"/>
    </vehicle><vehicle depart="188.00" id="188" type="nor">
        <route edges="3/5to4/5 4/5to4/4 4/4to4/3 4/3to5/3 5/3to5/4 5/4to4/4"/>
    </vehicle><vehicle depart="189.00" id="189" type="nor">
        <route edges="2/3to1/3 1/3to1/2 1/2to1/1 1/1to1 1to4/1 4/1to4/2 4/2to4/3 4/3to3/3"/>
    </vehicle><vehicle depart="190.00" id="190" type="nor">
        <route edges="2/5to2/4 2/4to2/3 2/3to3/3 3/3to3/4 3/4to2/4"/>
    </vehicle><vehicle depart="191.00" id="191" type="nor">
        <route edges="2/2to1/2 1/2to1/1 1/1to1 1to3/1 3/1to3/2 3/2to3/3 3/3to3/4 3/4to3/5 3/5to2/5"/>
    </vehicle><vehicle depart="192.00" id="192" type="nor">
        <route edges="2/1to3/1 3/1to1 1to5/1 5/1to5/2 5/2to5/3 5/3to5/4 5/4to1/4"/>
    </vehicle><vehicle depart="193.00" id="193" type="nor">
        <route edges="3/2to3/3 3/3to2/3 2/3to2/4 2/4to1/4"/>
    </vehicle><vehicle depart="194.00" id="194" type="nor">
        <route edges="5/2to4/2 4/2to3/2 3/2to3/3 3/3to3/4 3/4to3/5 3/5to2/5"/>
    </vehicle><vehicle depart="195.00" id="195" type="nor">
        <route edges="2/2to1/2 1/2to1/3 1/3to5/3"/>
    </vehicle><vehicle depart="196.00" id="196" type="nor">
        <route edges="5/3to1/3 1/3to1/2 1/2to1/1 1/1to1 1to4/1 4/1to4/2 4/2to4/3 4/3to4/4 4/4to4/5 4/5to5/5"/>
    </vehicle><vehicle depart="197.00" id="197" type="nor">
        <route edges="5/2to1/2 1/2to2/2 2/2to2/3 2/3to2/4 2/4to2/5 2/5to3/5"/>
    </vehicle><vehicle depart="198.00" id="198" type="nor">
        <route edges="5/5to1/5"/>
    </vehicle><vehicle depart="199.00" id="199" type="nor">
        <route edges="1/5to5/5 5/5to5/4 5/4to5/3 5/3to4/3 4/3to3/3"/>
    </vehicle><vehicle depart="200.00" id="200" type="nor">
        <route edges="1/3to5/3 5/3to5/2 5/2to5/1 5/1to1 1to2/1 2/1to2/2 2/2to2/3 2/3to2/4 2/4to2/5 2/5to1/5"/>
    </vehicle><vehicle depart="201.00" id="201" type="nor">
        <route edges="4/5to5/5 5/5to5/4 5/4to4/4 4/4to4/5 4/5to3/5"/>
    </vehicle><vehicle depart="202.00" id="202" type="nor">
        <route edges="3/3to4/3 4/3to4/2 4/2to4/1 4/1to1 1to1/1 1/1to1/2 1/2to1/3 1/3to5/3"/>
    </vehicle><vehicle depart="203.00" id="203" type="nor">
        <route edges="1/3to5/3 5/3to5/2 5/2to5/1 5/1to1 1to2/1 2/1to2/2 2/2to2/3 2/3to2/4 2/4to1/4"/>
    </vehicle><vehicle depart="204.00" id="204" type="nor">
        <route edges="4/4to5/4 5/4to5/3 5/3to5/2 5/2to5/1 5/1to1 1to3/1 3/1to3/2 3/2to3/3 3/3to3/4 3/4to3/5 3/5to4/5"/>
    </vehicle><vehicle depart="205.00" id="205" type="nor">
        <route edges="3/5to4/5 4/5to4/4 4/4to5/4 5/4to5/3"/>
    </vehicle><vehicle depart="206.00" id="206" type="nor">
        <route edges="4/3to5/3 5/3to5/2 5/2to5/1 5/1to1 1to3/1 3/1to3/2 3/2to3/3 3/3to2/3"/>
    </vehicle><vehicle depart="207.00" id="207" type="nor">
        <route edges="2/5to2/4 2/4to2/3 2/3to2/2 2/2to2/1 2/1to1 1to5/1 5/1to5/2 5/2to5/3 5/3to5/4 5/4to4/4"/>
    </vehicle><vehicle depart="208.00" id="208" type="nor">
        <route edges="3/4to3/3 3/3to4/3 4/3to4/4 4/4to5/4"/>
    </vehicle><vehicle depart="209.00" id="209" type="nor">
        <route edges="5/5to4/5 4/5to4/4 4/4to5/4 5/4to5/5 5/5to1/5"/>
    </vehicle><vehicle depart="210.00" id="210" type="nor">
        <route edges="1/1to1 1to5/1 5/1to5/2 5/2to1/2"/>
    </vehicle><vehicle depart="211.00" id="211" type="nor">
        <route edges="4/4to5/4 5/4to5/3 5/3to5/2 5/2to4/2 4/2to3/2"/>
    </vehicle><vehicle depart="212.00" id="212" type="nor">
        <route edges="4/4to3/4 3/4to3/3 3/3to3/2 3/2to4/2 4/2to4/3 4/3to3/3"/>